@<TRIPOS>MOLECULE
1wvg_APR_3_ligand
   57    60     1     0     0
SMALL
NO_CHARGES


@<TRIPOS>ATOM
     1 N1          34.5100    32.6320    39.0890 N.ar         1 APR1400   0.0000
     2 C2          33.3670    32.5800    39.8380 C.ar         1 APR1400   0.0000
     3 N3          32.3720    31.7570    39.7630 N.ar         1 APR1400   0.0000
     4 C4          32.5720    30.8850    38.7580 C.ar         1 APR1400   0.0000
     5 C5          33.6560    30.8300    37.9020 C.ar         1 APR1400   0.0000
     6 C6          34.6930    31.7580    38.0630 C.ar         1 APR1400   0.0000
     7 N6          35.7910    31.7420    37.2840 N.pl3        1 APR1400   0.0000
     8 N7          33.5390    29.7830    37.0030 N.2          1 APR1400   0.0000
     9 C8          32.3510    29.2280    37.3240 C.2          1 APR1400   0.0000
    10 N9          31.7050    29.8750    38.3410 N.pl3        1 APR1400   0.0000
    11 C1'         30.3530    29.6470    38.8790 C.3          1 APR1400   0.0000
    12 C2'         29.2090    29.8390    37.8850 C.3          1 APR1400   0.0000
    13 O2'         28.9230    31.2390    37.5980 O.3          1 APR1400   0.0000
    14 C3'         28.0910    29.1420    38.6870 C.3          1 APR1400   0.0000
    15 O3'         27.6620    29.8130    39.9000 O.3          1 APR1400   0.0000
    16 O4'         30.2230    28.3330    39.2840 O.3          1 APR1400   0.0000
    17 C4'         28.8580    27.8780    39.0680 C.3          1 APR1400   0.0000
    18 C5'         28.8130    26.7580    38.0530 C.3          1 APR1400   0.0000
    19 O5'         27.4740    26.2300    38.1040 O.3          1 APR1400   0.0000
    20 PA          26.9410    25.0480    37.1740 P.3          1 APR1400   0.0000
    21 O1A         27.5950    25.1280    35.8190 O.co2        1 APR1400   0.0000
    22 O2A         25.4100    25.0460    37.3190 O.co2        1 APR1400  -1.0000
    23 O3A         27.4630    23.7750    37.8750 O.3          1 APR1400   0.0000
    24 PB          27.0380    23.0670    39.2790 P.3          1 APR1400   0.0000
    25 O1B         26.2660    21.8120    38.9170 O.co2        1 APR1400   0.0000
    26 O2B         26.4370    24.1300    40.1830 O.co2        1 APR1400  -1.0000
    27 O5D         28.4880    22.6830    39.8020 O.3          1 APR1400   0.0000
    28 C5D         29.1390    23.3390    40.9090 C.3          1 APR1400   0.0000
    29 O4D         30.5990    22.0430    42.2980 O.3          1 APR1400   0.0000
    30 O1D         28.8770    20.6180    42.7930 O.3          1 APR1400   0.0000
    31 C1D         30.1700    20.7170    42.1820 C.3          1 APR1400   0.0000
    32 O2D         30.2630    19.1520    40.2450 O.3          1 APR1400   0.0000
    33 C2D         29.9120    20.4690    40.7210 C.3          1 APR1400   0.0000
    34 O3D         32.0580    21.2330    39.7000 O.3          1 APR1400   0.0000
    35 C3D         30.6960    21.5750    40.0010 C.3          1 APR1400   0.0000
    36 C4D         30.4990    22.6990    41.0090 C.3          1 APR1400   0.0000
    37 H1          33.2891    33.2806    40.5473 H            1 APR1400   0.0000
    38 H2          35.8689    31.0746    36.5434 H            1 APR1400   0.0000
    39 H3          36.5286    32.3975    37.4460 H            1 APR1400   0.0000
    40 H4          31.9795    28.4221    36.8630 H            1 APR1400   0.0000
    41 H1'         30.2079    30.2478    39.6652 H            1 APR1400   0.0000
    42 H2'         29.3945    29.3399    37.0385 H            1 APR1400   0.0000
    43 H7          27.9793    31.4461    37.8560 H            1 APR1400   0.0000
    44 H3'         27.3102    28.9254    38.1010 H            1 APR1400   0.0000
    45 H9          27.3136    30.7223    39.6725 H            1 APR1400   0.0000
    46 H4'         28.4961    27.5358    39.9351 H            1 APR1400   0.0000
    47 H5'1        29.4759    26.0477    38.2897 H            1 APR1400   0.0000
    48 H5'2        29.0133    27.1095    37.1385 H            1 APR1400   0.0000
    49 H5D1        28.6223    23.1965    41.7532 H            1 APR1400   0.0000
    50 H5D2        29.2258    24.3195    40.7328 H            1 APR1400   0.0000
    51 H1D         28.6061    21.5132    43.1468 H            1 APR1400   0.0000
    52 H16         30.8256    20.0686    42.5691 H            1 APR1400   0.0000
    53 H2D         30.0562    19.0842    39.2690 H            1 APR1400   0.0000
    54 H18         28.9379    20.6139    40.5475 H            1 APR1400   0.0000
    55 H3D         32.3465    21.7120    38.8710 H            1 APR1400   0.0000
    56 H20         30.2231    21.8109    39.1520 H            1 APR1400   0.0000
    57 H4D         31.2176    23.3874    40.9102 H            1 APR1400   0.0000
@<TRIPOS>BOND
     1    1    2      ar
     2    1    6      ar
     3    2    3      ar
     4    3    4      ar
     5    4    5      ar
     6    4   10       1
     7    5    6      ar
     8    5    8       1
     9    6    7       1
    10    8    9       2
    11    9   10       1
    12   10   11       1
    13   11   12       1
    14   11   16       1
    15   12   13       1
    16   12   14       1
    17   14   15       1
    18   14   17       1
    19   16   17       1
    20   17   18       1
    21   18   19       1
    22   19   20       1
    23   20   21      ar
    24   20   22      ar
    25   20   23       1
    26   23   24       1
    27   24   25      ar
    28   24   26      ar
    29   24   27       1
    30   27   28       1
    31   28   36       1
    32   29   31       1
    33   29   36       1
    34   30   31       1
    35   31   33       1
    36   32   33       1
    37   33   35       1
    38   34   35       1
    39   35   36       1
    40    2   37       1
    41    7   38       1
    42    7   39       1
    43    9   40       1
    44   11   41       1
    45   12   42       1
    46   13   43       1
    47   14   44       1
    48   15   45       1
    49   17   46       1
    50   18   47       1
    51   18   48       1
    52   36   57       1
    53   35   56       1
    54   28   49       1
    55   28   50       1
    56   30   51       1
    57   31   52       1
    58   32   53       1
    59   33   54       1
    60   34   55       1
@<TRIPOS>SUBSTRUCTURE
     1 APR1400     1 GROUP             4 B     APR     0 **** APR B1400
