@<TRIPOS>MOLECULE
1rrm_APR_1_ligand
   57    60     1     0     0
SMALL
NO_CHARGES


@<TRIPOS>ATOM
     1 N1          58.5910    -4.0160    17.0550 N.ar         1 APR389   0.0000
     2 C2          59.3700    -3.5970    15.9840 C.ar         1 APR389   0.0000
     3 N3          60.0810    -2.5080    15.8950 N.ar         1 APR389   0.0000
     4 C4          60.0010    -1.7390    17.0350 C.ar         1 APR389   0.0000
     5 C5          59.2760    -2.0030    18.1930 C.ar         1 APR389   0.0000
     6 C6          58.5240    -3.2220    18.2000 C.ar         1 APR389   0.0000
     7 N6          57.7800    -3.6310    19.2210 N.pl3        1 APR389   0.0000
     8 N7          59.4450    -0.9880    19.1240 N.2          1 APR389   0.0000
     9 C8          60.2680    -0.1170    18.5280 C.2          1 APR389   0.0000
    10 N9          60.6310    -0.5240    17.2650 N.pl3        1 APR389   0.0000
    11 C1'         61.5040     0.1040    16.2660 C.3          1 APR389   0.0000
    12 C2'         61.1670     1.5490    15.9890 C.3          1 APR389   0.0000
    13 O2'         60.0870     1.7160    15.0560 O.3          1 APR389   0.0000
    14 C3'         62.4890     2.1160    15.4590 C.3          1 APR389   0.0000
    15 O3'         62.7450     1.9400    14.0490 O.3          1 APR389   0.0000
    16 O4'         62.8160     0.1360    16.7490 O.3          1 APR389   0.0000
    17 C4'         63.5140     1.3370    16.2960 C.3          1 APR389   0.0000
    18 C5'         64.1030     2.0640    17.4960 C.3          1 APR389   0.0000
    19 O5'         63.0720     2.5810    18.3750 O.3          1 APR389   0.0000
    20 PA          63.4780     3.6350    19.5240 P.3          1 APR389   0.0000
    21 O1A         62.2630     4.1770    20.1670 O.co2        1 APR389   0.0000
    22 O2A         64.2640     4.7480    18.9490 O.co2        1 APR389  -1.0000
    23 O3A         64.3460     2.7620    20.4840 O.3          1 APR389   0.0000
    24 PB          64.4510     2.6710    22.1300 P.3          1 APR389   0.0000
    25 O1B         65.6190     1.8510    22.5110 O.co2        1 APR389   0.0000
    26 O2B         63.1890     2.0820    22.6110 O.co2        1 APR389  -1.0000
    27 O5D         64.5790     4.1830    22.5420 O.3          1 APR389   0.0000
    28 C5D         65.7730     4.8620    22.2140 C.3          1 APR389   0.0000
    29 O4D         65.3670     6.3690    24.0790 O.3          1 APR389   0.0000
    30 O1D         66.5430     6.6930    26.0770 O.3          1 APR389   0.0000
    31 C1D         66.3110     7.1800    24.7100 C.3          1 APR389   0.0000
    32 O2D         68.4560     8.1930    23.9560 O.3          1 APR389   0.0000
    33 C2D         67.5400     7.0890    23.8370 C.3          1 APR389   0.0000
    34 O3D         66.7380     8.4010    21.8690 O.3          1 APR389   0.0000
    35 C3D         66.9390     7.0880    22.4280 C.3          1 APR389   0.0000
    36 C4D         65.6810     6.2760    22.6710 C.3          1 APR389   0.0000
    37 H1          59.3875    -4.2017    15.1878 H            1 APR389   0.0000
    38 H2          57.7198    -3.0751    20.0501 H            1 APR389   0.0000
    39 H3          57.2799    -4.4949    19.1608 H            1 APR389   0.0000
    40 H4          60.5829     0.7321    18.9520 H            1 APR389   0.0000
    41 H1'         61.4714    -0.4187    15.4141 H            1 APR389   0.0000
    42 H2'         60.9338     2.0040    16.8484 H            1 APR389   0.0000
    43 H7          59.5957     2.5621    15.2628 H            1 APR389   0.0000
    44 H3'         62.5467     3.0880    15.6866 H            1 APR389   0.0000
    45 H9          62.3021     1.1014    13.7319 H            1 APR389   0.0000
    46 H4'         64.2644     1.0585    15.6965 H            1 APR389   0.0000
    47 H5'1        64.6618     2.8264    17.1697 H            1 APR389   0.0000
    48 H5'2        64.6766     1.4266    18.0105 H            1 APR389   0.0000
    49 H5D1        65.9077     4.8399    21.2234 H            1 APR389   0.0000
    50 H5D2        66.5454     4.4153    22.6655 H            1 APR389   0.0000
    51 H1D         65.9047     7.1408    26.7032 H            1 APR389   0.0000
    52 H16         65.9832     8.1244    24.7372 H            1 APR389   0.0000
    53 H2D         69.3867     7.8748    23.7757 H            1 APR389   0.0000
    54 H18         68.0179     6.2271    24.0065 H            1 APR389   0.0000
    55 H3D         67.5584     8.6800    21.3699 H            1 APR389   0.0000
    56 H20         67.5429     6.5703    21.8220 H            1 APR389   0.0000
    57 H4D         64.9364     6.7109    22.1646 H            1 APR389   0.0000
@<TRIPOS>BOND
     1    1    2      ar
     2    1    6      ar
     3    2    3      ar
     4    3    4      ar
     5    4    5      ar
     6    4   10       1
     7    5    6      ar
     8    5    8       1
     9    6    7       1
    10    8    9       2
    11    9   10       1
    12   10   11       1
    13   11   12       1
    14   11   16       1
    15   12   13       1
    16   12   14       1
    17   14   15       1
    18   14   17       1
    19   16   17       1
    20   17   18       1
    21   18   19       1
    22   19   20       1
    23   20   21      ar
    24   20   22      ar
    25   20   23       1
    26   23   24       1
    27   24   25      ar
    28   24   26      ar
    29   24   27       1
    30   27   28       1
    31   28   36       1
    32   29   31       1
    33   29   36       1
    34   30   31       1
    35   31   33       1
    36   32   33       1
    37   33   35       1
    38   34   35       1
    39   35   36       1
    40    2   37       1
    41    7   38       1
    42    7   39       1
    43    9   40       1
    44   11   41       1
    45   12   42       1
    46   13   43       1
    47   14   44       1
    48   15   45       1
    49   17   46       1
    50   18   47       1
    51   18   48       1
    52   36   57       1
    53   35   56       1
    54   28   49       1
    55   28   50       1
    56   30   51       1
    57   31   52       1
    58   32   53       1
    59   33   54       1
    60   34   55       1
@<TRIPOS>SUBSTRUCTURE
     1 APR389      1 GROUP             4 A     APR     0 **** APR A 389
