@<TRIPOS>MOLECULE
./coach420/2dya/ligand.pdb
 27 29 0 0 0
SMALL
GASTEIGER

@<TRIPOS>ATOM
      1  PB        36.6070   38.4290   32.4640 P.3   502  ADP502      0.5373
      2  O1B       35.4000   39.0850   33.0140 O.3   502  ADP502     -0.1143
      3  O2B       36.6440   36.8520   32.7830 O.3   502  ADP502     -0.1143
      4  O3B       36.7160   38.5540   30.8630 O.2   502  ADP502     -0.2221
      5  PA        38.0420   40.3850   33.9150 P.3   502  ADP502      0.2231
      6  O1A       36.7040   41.0180   33.8740 O.2   502  ADP502     -0.5169
      7  O2A       38.6300   40.0640   35.2350 O.3   502  ADP502     -0.4370
      8  O3A       37.9870   39.0290   33.0450 O.3   502  ADP502     -0.2261
      9  O5'       39.0810   41.2970   33.0890 O.3   502  ADP502     -0.3111
     10  C5'       38.7630   41.7290   31.7630 C.3   502  ADP502      0.1813
     11  C4'       39.9200   41.4150   30.8130 C.3   502  ADP502      0.1801
     12  O4'       41.1340   42.0830   31.1960 O.3   502  ADP502     -0.3306
     13  C3'       40.2610   39.9260   30.8520 C.3   502  ADP502      0.2161
     14  O3'       39.3540   39.2190   30.0010 O.3   502  ADP502     -0.2175
     15  C2'       41.6370   39.9930   30.1930 C.3   502  ADP502      0.2337
     16  O2'       41.4990   40.2880   28.8010 O.3   502  ADP502     -0.2155
     17  C1'       42.2370   41.2010   30.9180 C.3   502  ADP502      0.2409
     18  N9        42.8240   40.8240   32.2240 N.ar  502  ADP502     -0.2693
     19  C8        42.1660   40.3770   33.2920 C.ar  502  ADP502      0.1816
     20  N7        43.0150   40.2170   34.3040 N.ar  502  ADP502     -0.2193
     21  C5        44.2270   40.5620   33.8790 C.ar  502  ADP502      0.1518
     22  C6        45.4840   40.6150   34.4680 C.ar  502  ADP502      0.1919
     23  N6        45.6470   40.2870   35.7460 N.pl3 502  ADP502     -0.1054
     24  N1        46.5280   41.0240   33.7320 N.ar  502  ADP502     -0.2040
     25  C2        46.3760   41.3770   32.4680 C.ar  502  ADP502      0.2016
     26  N3        45.1950   41.3430   31.8760 N.ar  502  ADP502     -0.2048
     27  C4        44.1070   40.9440   32.5500 C.ar  502  ADP502      0.1692
@<TRIPOS>BOND
     1     1     4    2
     2     1     3    1
     3     1     2    1
     4     1     8    1
     5     5     8    1
     6     5     9    1
     7     5     6    2
     8     5     7    1
     9     9    10    1
    10    10    11    1
    11    11    13    1
    12    11    12    1
    13    12    17    1
    14    13    14    1
    15    13    15    1
    16    15    16    1
    17    15    17    1
    18    17    18    1
    19    18    27   ar
    20    18    19   ar
    21    19    20   ar
    22    20    21   ar
    23    21    27   ar
    24    21    22   ar
    25    22    24   ar
    26    22    23    1
    27    24    25   ar
    28    25    26   ar
    29    26    27   ar
