@<TRIPOS>MOLECULE
2h2a_DND_1_ligand
   68    72     1     0     0
SMALL
NO_CHARGES


@<TRIPOS>ATOM
     1 PN          11.8390    36.3790    19.7290 P.3          1 DND1301   0.0000
     2 O11         12.8380    37.4690    19.9090 O.co2        1 DND1301   0.0000
     3 O12         11.8650    35.2870    20.7410 O.co2        1 DND1301  -1.0000
     4 O3P         12.2620    35.4780    18.4440 O.3          1 DND1301   0.0000
     5 O5D         10.4380    37.0470    19.5540 O.3          1 DND1301   0.0000
     6 C5D          9.1640    36.3120    19.4050 C.3          1 DND1301   0.0000
     7 C4D          7.9500    37.2260    19.1720 C.3          1 DND1301   0.0000
     8 O4D          7.5210    37.8500    20.3950 O.3          1 DND1301   0.0000
     9 C3D          8.2540    38.3030    18.2020 C.3          1 DND1301   0.0000
    10 O3D          7.0980    38.4030    17.3710 O.3          1 DND1301   0.0000
    11 C2D          8.5330    39.4900    19.1290 C.3          1 DND1301   0.0000
    12 O2D          8.3780    40.7360    18.4060 O.3          1 DND1301   0.0000
    13 C1D          7.5070    39.2430    20.2500 C.3          1 DND1301   0.0000
    14 N1N          7.6320    40.1260    21.3650 N.ar         1 DND1301   1.0000
    15 C6N          8.7330    39.6760    22.2040 C.ar         1 DND1301   0.0000
    16 C5N          9.0320    40.4130    23.3670 C.ar         1 DND1301   0.0000
    17 C4N          8.2260    41.5410    23.6190 C.ar         1 DND1301   0.0000
    18 C3N          7.1580    41.9610    22.7500 C.ar         1 DND1301   0.0000
    19 C2N          6.8390    41.2580    21.6040 C.ar         1 DND1301   0.0000
    20 C7N          6.2950    43.1700    22.9790 C.2          1 DND1301   0.0000
    21 O7N          5.3660    43.3660    22.0720 O.co2        1 DND1301   0.0000
    22 O8N          6.5150    43.8920    23.9120 O.co2        1 DND1301  -1.0000
    23 PA          13.1440    34.1390    18.0660 P.3          1 DND1301   0.0000
    24 O13         13.2810    34.2130    16.5850 O.co2        1 DND1301   0.0000
    25 O14         14.1300    34.3320    19.1390 O.co2        1 DND1301  -1.0000
    26 O5B         12.1090    32.9800    18.5790 O.3          1 DND1301   0.0000
    27 C5B         10.9220    32.8150    17.7380 C.3          1 DND1301   0.0000
    28 C4B          9.8380    32.1630    18.6240 C.3          1 DND1301   0.0000
    29 O4B         10.1100    30.7490    18.6400 O.3          1 DND1301   0.0000
    30 C3B          9.6350    32.5360    20.0810 C.3          1 DND1301   0.0000
    31 O3B          8.2710    32.4740    20.4570 O.3          1 DND1301   0.0000
    32 C2B         10.4930    31.5240    20.8460 C.3          1 DND1301   0.0000
    33 O2B         10.0890    31.2690    22.1940 O.3          1 DND1301   0.0000
    34 C1B         10.3340    30.2840    19.9800 C.3          1 DND1301   0.0000
    35 N9A         11.4110    29.2670    19.9550 N.pl3        1 DND1301   0.0000
    36 C4A         11.2560    27.9750    20.2580 C.ar         1 DND1301   0.0000
    37 N3A         10.2570    27.1990    20.7600 N.ar         1 DND1301   0.0000
    38 C2A         10.4030    25.8880    21.0560 C.ar         1 DND1301   0.0000
    39 N1A         11.6280    25.3430    20.8230 N.ar         1 DND1301   0.0000
    40 C6A         12.7280    26.0220    20.3220 C.ar         1 DND1301   0.0000
    41 C5A         12.5180    27.4210    20.0270 C.ar         1 DND1301   0.0000
    42 N7A         13.3990    28.3210    19.5420 N.2          1 DND1301   0.0000
    43 C8A         12.6910    29.4700    19.4780 C.2          1 DND1301   0.0000
    44 N6A         13.9300    25.3850    20.1500 N.pl3        1 DND1301   0.0000
    45 H5D1         9.0055    35.7820    20.2380 H            1 DND1301   0.0000
    46 H5D2         9.2465    35.6911    18.6255 H            1 DND1301   0.0000
    47 H4D          7.1975    36.6740    18.8127 H            1 DND1301   0.0000
    48 H3D          9.0634    38.0763    17.6603 H            1 DND1301   0.0000
    49 H5           7.3690    38.7087    16.4583 H            1 DND1301   0.0000
    50 H2D          9.4606    39.4235    19.4966 H            1 DND1301   0.0000
    51 H7           8.0773    41.4519    19.0362 H            1 DND1301   0.0000
    52 H1D          6.6181    39.4561    19.8444 H            1 DND1301   0.0000
    53 H6N          9.2639    38.8641    21.9611 H            1 DND1301   0.0000
    54 H5N          9.7763    40.1497    23.9807 H            1 DND1301   0.0000
    55 H4N          8.4051    42.0773    24.4438 H            1 DND1301   0.0000
    56 H2N          6.0988    41.5353    20.9914 H            1 DND1301   0.0000
    57 H5B1        11.1312    32.2245    16.9585 H            1 DND1301   0.0000
    58 H5B2        10.6075    33.7048    17.4072 H            1 DND1301   0.0000
    59 H4B          8.9610    32.2905    18.1608 H            1 DND1301   0.0000
    60 H3B          9.9843    33.4592    20.2414 H            1 DND1301   0.0000
    61 H17          8.0938    33.1418    21.1800 H            1 DND1301   0.0000
    62 H2B         11.4483    31.8195    20.8339 H            1 DND1301   0.0000
    63 H19         10.8903    31.0307    22.7427 H            1 DND1301   0.0000
    64 H1B          9.4980    29.8219    20.2761 H            1 DND1301   0.0000
    65 H2A          9.6490    25.3462    21.4274 H            1 DND1301   0.0000
    66 H8A         13.0428    30.3410    19.1350 H            1 DND1301   0.0000
    67 H6A1        14.7149    25.8876    19.7876 H            1 DND1301   0.0000
    68 H6A2        14.0217    24.4178    20.3870 H            1 DND1301   0.0000
@<TRIPOS>BOND
     1    1    2      ar
     2    1    3      ar
     3    1    4       1
     4    1    5       1
     5    4   23       1
     6    5    6       1
     7    6    7       1
     8    7    8       1
     9    7    9       1
    10    8   13       1
    11    9   10       1
    12    9   11       1
    13   11   12       1
    14   11   13       1
    15   13   14       1
    16   14   15      ar
    17   14   19      ar
    18   15   16      ar
    19   16   17      ar
    20   17   18      ar
    21   18   19      ar
    22   18   20       1
    23   20   21      ar
    24   20   22      ar
    25   23   24      ar
    26   23   25      ar
    27   23   26       1
    28   26   27       1
    29   27   28       1
    30   28   29       1
    31   28   30       1
    32   29   34       1
    33   30   31       1
    34   30   32       1
    35   32   33       1
    36   32   34       1
    37   34   35       1
    38   35   36       1
    39   35   43       1
    40   36   37      ar
    41   36   41      ar
    42   37   38      ar
    43   38   39      ar
    44   39   40      ar
    45   40   41      ar
    46   40   44       1
    47   41   42       1
    48   42   43       2
    49   44   68       1
    50    6   45       1
    51    6   46       1
    52    7   47       1
    53    9   48       1
    54   10   49       1
    55   11   50       1
    56   12   51       1
    57   13   52       1
    58   15   53       1
    59   16   54       1
    60   17   55       1
    61   19   56       1
    62   44   67       1
    63   43   66       1
    64   27   57       1
    65   27   58       1
    66   28   59       1
    67   30   60       1
    68   31   61       1
    69   32   62       1
    70   33   63       1
    71   34   64       1
    72   38   65       1
@<TRIPOS>SUBSTRUCTURE
     1 DND1301     1 GROUP             4 A     DND     0 **** DND A1301
