@<TRIPOS>MOLECULE
1qp8_NDP_1_ligand
   74    78     1     0     0
SMALL
NO_CHARGES


@<TRIPOS>ATOM
     1 PA          34.6380     1.0580   102.0400 P.3          1 NDP310   0.0000
     2 O1A         35.8600     0.7890   102.8600 O.co2        1 NDP310   0.0000
     3 O2A         34.9580     2.4980   102.1480 O.co2        1 NDP310  -1.0000
     4 O5B         35.1890    -0.1560   101.0680 O.3          1 NDP310   0.0000
     5 C5B         34.5550    -1.4510   101.4240 C.3          1 NDP310   0.0000
     6 C4B         34.1940    -2.2510   100.1200 C.3          1 NDP310   0.0000
     7 O4B         35.3430    -2.9270    99.4760 O.3          1 NDP310   0.0000
     8 C3B         33.2100    -3.4600   100.3750 C.3          1 NDP310   0.0000
     9 O3B         32.5880    -3.8390    99.1600 O.3          1 NDP310   0.0000
    10 C2B         34.2270    -4.4440   100.9540 C.3          1 NDP310   0.0000
    11 O2B         33.9400    -5.7660   101.2300 O.3          1 NDP310   0.0000
    12 C1B         35.3390    -4.2780   100.0040 C.3          1 NDP310   0.0000
    13 N9A         36.5720    -4.7970   100.4990 N.pl3        1 NDP310   0.0000
    14 C8A         37.3790    -4.4000   101.5320 C.2          1 NDP310   0.0000
    15 N7A         38.4700    -5.1590   101.6420 N.2          1 NDP310   1.0000
    16 C5A         38.3310    -6.0730   100.6270 C.ar         1 NDP310   0.0000
    17 C6A         39.1590    -7.1780   100.2050 C.ar         1 NDP310   0.0000
    18 N6A         40.3010    -7.4510   100.8650 N.pl3        1 NDP310   0.0000
    19 N1A         38.7200    -7.9310    99.1220 N.ar         1 NDP310   0.0000
    20 C2A         37.5230    -7.5890    98.5060 C.ar         1 NDP310   0.0000
    21 N3A         36.7090    -6.6010    98.8340 N.ar         1 NDP310   0.0000
    22 C4A         37.1920    -5.8670    99.9040 C.ar         1 NDP310   0.0000
    23 O3          34.4570     1.6080   100.5820 O.3          1 NDP310   0.0000
    24 PN          34.9220     2.7750    99.5250 P.3          1 NDP310   0.0000
    25 O1N         34.2290     2.6230    98.2250 O.co2        1 NDP310   0.0000
    26 O2N         34.7280     4.1510   100.0860 O.co2        1 NDP310  -1.0000
    27 O5D         36.5570     2.5570    99.3170 O.3          1 NDP310   0.0000
    28 C5D         37.4490     3.1080   100.3150 C.3          1 NDP310   0.0000
    29 C4D         38.8770     2.8600    99.8000 C.3          1 NDP310   0.0000
    30 O4D         39.0690     3.5950    98.5670 O.3          1 NDP310   0.0000
    31 C3D         39.9130     3.3900   100.7900 C.3          1 NDP310   0.0000
    32 O3D         40.2150     2.3670   101.7250 O.3          1 NDP310   0.0000
    33 C2D         41.0720     3.8050    99.8450 C.3          1 NDP310   0.0000
    34 O2D         42.0160     2.7380    99.6630 O.3          1 NDP310   0.0000
    35 C1D         40.3590     4.2540    98.5480 C.3          1 NDP310   0.0000
    36 N1N         40.1910     5.7810    98.4440 N.ar         1 NDP310   1.0000
    37 C2N         40.8370     6.4050    97.3220 C.ar         1 NDP310   0.0000
    38 C3N         40.6890     7.8100    97.2140 C.ar         1 NDP310   0.0000
    39 C7N         41.3860     8.5260    95.9920 C.2          1 NDP310   0.0000
    40 O7N         42.1580     7.8686    95.3192 O.2          1 NDP310   0.0000
    41 N7N         41.0759     9.8322    95.7690 N.am         1 NDP310   0.0000
    42 C4N         39.9440     8.6390    98.1380 C.ar         1 NDP310   0.0000
    43 C5N         39.3530     7.8740    99.2070 C.ar         1 NDP310   0.0000
    44 C6N         39.4440     6.5270    99.3860 C.ar         1 NDP310   0.0000
    45 P2B         33.5120    -6.0610   102.8480 P.3          1 NDP310   0.0000
    46 O1X         33.3420    -7.5520   102.6880 O.co2        1 NDP310   0.0000
    47 O2X         34.7170    -5.6180   103.5990 O.co2        1 NDP310  -1.0000
    48 O3X         32.3160    -5.2680   103.0760 O.co2        1 NDP310  -1.0000
    49 H5B1        33.7209    -1.2781   101.9478 H            1 NDP310   0.0000
    50 H5B2        35.1905    -1.9895   101.9773 H            1 NDP310   0.0000
    51 H4B         33.7753    -1.6256    99.4616 H            1 NDP310   0.0000
    52 H3B         32.5242    -3.2175   101.0612 H            1 NDP310   0.0000
    53 H5          32.8116    -4.7917    98.9541 H            1 NDP310   0.0000
    54 H2B         34.5384    -4.0436   101.8158 H            1 NDP310   0.0000
    55 H1B         35.1053    -4.8607    99.2257 H            1 NDP310   0.0000
    56 H8A         37.1736    -3.6291   102.1349 H            1 NDP310   0.0000
    57 H6A1        40.8759    -8.2159   100.5743 H            1 NDP310   0.0000
    58 H6A2        40.5740    -6.8888   101.6457 H            1 NDP310   0.0000
    59 H2A         37.2465    -8.1530    97.7279 H            1 NDP310   0.0000
    60 H5D1        37.3127     2.6488   101.1928 H            1 NDP310   0.0000
    61 H5D2        37.2850     4.0886   100.4227 H            1 NDP310   0.0000
    62 H4D         39.0205     1.8829    99.6431 H            1 NDP310   0.0000
    63 H3D         39.5537     4.1933   101.2650 H            1 NDP310   0.0000
    64 H16         41.1581     2.4717   102.0406 H            1 NDP310   0.0000
    65 H2D         41.5460     4.5912   100.2415 H            1 NDP310   0.0000
    66 H18         42.7284     2.8004   100.3620 H            1 NDP310   0.0000
    67 H1D         40.8804     3.9284    97.7593 H            1 NDP310   0.0000
    68 H2N         41.3619     5.8768    96.6545 H            1 NDP310   0.0000
    69 H7N1        41.4929    10.3213    95.0030 H            1 NDP310   0.0000
    70 H7N2        40.4310    10.3028    96.3712 H            1 NDP310   0.0000
    71 H4N         39.8501     9.6302    98.0450 H            1 NDP310   0.0000
    72 H5N         38.8231     8.3833    99.8851 H            1 NDP310   0.0000
    73 H6N         38.9964     6.0788   100.1598 H            1 NDP310   0.0000
    74 H7A         39.2133    -5.0809   102.3064 H            1 NDP310   0.0000
@<TRIPOS>BOND
     1    1    2      ar
     2    1    3      ar
     3    1    4       1
     4    1   23       1
     5    4    5       1
     6    5    6       1
     7    6    7       1
     8    6    8       1
     9    7   12       1
    10    8    9       1
    11    8   10       1
    12   10   11       1
    13   10   12       1
    14   11   45       1
    15   12   13       1
    16   13   14       1
    17   13   22       1
    18   14   15       2
    19   15   16       1
    20   16   17      ar
    21   16   22      ar
    22   17   18       1
    23   17   19      ar
    24   19   20      ar
    25   20   21      ar
    26   21   22      ar
    27   23   24       1
    28   24   25      ar
    29   24   26      ar
    30   24   27       1
    31   27   28       1
    32   28   29       1
    33   29   30       1
    34   29   31       1
    35   30   35       1
    36   31   32       1
    37   31   33       1
    38   33   34       1
    39   33   35       1
    40   35   36       1
    41   36   37      ar
    42   36   44      ar
    43   37   38      ar
    44   38   39       1
    45   38   42      ar
    46   39   40       2
    47   39   41      am
    48   42   43      ar
    49   43   44      ar
    50   45   46      ar
    51   45   47      ar
    52   45   48      ar
    53   43   72       1
    54    5   49       1
    55    5   50       1
    56    6   51       1
    57    8   52       1
    58    9   53       1
    59   10   54       1
    60   12   55       1
    61   14   56       1
    62   18   57       1
    63   18   58       1
    64   20   59       1
    65   44   73       1
    66   28   60       1
    67   28   61       1
    68   29   62       1
    69   31   63       1
    70   32   64       1
    71   33   65       1
    72   34   66       1
    73   35   67       1
    74   37   68       1
    75   41   69       1
    76   41   70       1
    77   42   71       1
    78   15   74       1
@<TRIPOS>SUBSTRUCTURE
     1 NDP310      1 GROUP             4 A     NDP     0 **** NDP A 310
