@<TRIPOS>MOLECULE
4at8_ATP_1_ligand
   43    45     1     0     0
SMALL
NO_CHARGES


@<TRIPOS>ATOM
     1 PG           1.3360    -1.5420   -70.3910 P.3          1 ATP1362   0.0000
     2 O1G          0.8400    -0.3460   -71.1780 O.co2        1 ATP1362   0.0000
     3 O2G          0.2880    -2.6330   -70.5620 O.co2        1 ATP1362  -1.0000
     4 O3G          2.6910    -2.0110   -70.9500 O.co2        1 ATP1362  -1.0000
     5 PB           2.4230    -1.7480   -67.8420 P.3          1 ATP1362   0.0000
     6 O1B          3.1910    -2.9260   -68.4890 O.co2        1 ATP1362   0.0000
     7 O2B          1.7090    -2.2180   -66.5880 O.co2        1 ATP1362  -1.0000
     8 O3B          1.4300    -1.1310   -68.8760 O.3          1 ATP1362   0.0000
     9 PA           4.7800    -0.4160   -68.3040 P.3          1 ATP1362   0.0000
    10 O1A          4.8990    -1.4270   -69.4350 O.co2        1 ATP1362   0.0000
    11 O2A          4.8350     1.0000   -68.8620 O.co2        1 ATP1362  -1.0000
    12 O3A          3.4610    -0.6690   -67.4760 O.3          1 ATP1362   0.0000
    13 O5'          5.9920    -0.7000   -67.3170 O.3          1 ATP1362   0.0000
    14 C5'          6.0680    -1.9270   -66.6520 C.3          1 ATP1362   0.0000
    15 C4'          6.3830    -1.8730   -65.2450 C.3          1 ATP1362   0.0000
    16 O4'          7.0510    -0.5990   -65.0050 O.3          1 ATP1362   0.0000
    17 C3'          5.1390    -1.8600   -64.4580 C.3          1 ATP1362   0.0000
    18 O3'          5.1290    -2.9010   -63.5990 O.3          1 ATP1362   0.0000
    19 C2'          5.1070    -0.5960   -63.7110 C.3          1 ATP1362   0.0000
    20 O2'          4.9970    -0.8630   -62.4030 O.3          1 ATP1362   0.0000
    21 C1'          6.4040     0.0850   -63.9640 C.3          1 ATP1362   0.0000
    22 N9           6.3620     1.5010   -64.2880 N.pl3        1 ATP1362   0.0000
    23 C8           6.4020     2.0260   -65.5320 C.2          1 ATP1362   0.0000
    24 N7           6.3790     3.3670   -65.4230 N.2          1 ATP1362   0.0000
    25 C5           6.3290     3.7030   -64.1160 C.ar         1 ATP1362   0.0000
    26 C6           6.2890     4.9160   -63.4280 C.ar         1 ATP1362   0.0000
    27 N6           6.2990     6.1530   -64.1430 N.pl3        1 ATP1362   0.0000
    28 N1           6.2430     4.9040   -62.0840 N.ar         1 ATP1362   0.0000
    29 C2           6.2370     3.7440   -61.4010 C.ar         1 ATP1362   0.0000
    30 N3           6.2740     2.5610   -62.0370 N.ar         1 ATP1362   0.0000
    31 C4           6.3200     2.5070   -63.3790 C.ar         1 ATP1362   0.0000
    32 H5'1         6.7742    -2.4740   -67.1016 H            1 ATP1362   0.0000
    33 H5'2         5.1825    -2.3814   -66.7488 H            1 ATP1362   0.0000
    34 H4'          6.9673    -2.6397   -64.9789 H            1 ATP1362   0.0000
    35 H3'          4.3490    -1.9148   -65.0687 H            1 ATP1362   0.0000
    36 H5           5.0671    -2.5589   -62.6614 H            1 ATP1362   0.0000
    37 H2'          4.3452    -0.0257   -64.0183 H            1 ATP1362   0.0000
    38 H7           4.1584    -0.4499   -62.0478 H            1 ATP1362   0.0000
    39 H1'          6.9639    -0.0191   -63.1420 H            1 ATP1362   0.0000
    40 H9           6.4418     1.5077   -66.3863 H            1 ATP1362   0.0000
    41 H10          6.2702     7.0192   -63.6441 H            1 ATP1362   0.0000
    42 H11          6.3348     6.1526   -65.1424 H            1 ATP1362   0.0000
    43 H12          6.2044     3.7631   -60.4017 H            1 ATP1362   0.0000
@<TRIPOS>BOND
     1    1    2      ar
     2    1    3      ar
     3    1    4      ar
     4    1    8       1
     5    5    6      ar
     6    5    7      ar
     7    5    8       1
     8    5   12       1
     9    9   10      ar
    10    9   11      ar
    11    9   12       1
    12    9   13       1
    13   13   14       1
    14   14   15       1
    15   15   16       1
    16   15   17       1
    17   16   21       1
    18   17   18       1
    19   17   19       1
    20   19   20       1
    21   19   21       1
    22   21   22       1
    23   22   23       1
    24   22   31       1
    25   23   24       2
    26   24   25       1
    27   25   26      ar
    28   25   31      ar
    29   26   27       1
    30   26   28      ar
    31   28   29      ar
    32   29   30      ar
    33   30   31      ar
    34   29   43       1
    35   27   42       1
    36   27   41       1
    37   23   40       1
    38   14   32       1
    39   14   33       1
    40   15   34       1
    41   17   35       1
    42   18   36       1
    43   19   37       1
    44   20   38       1
    45   21   39       1
@<TRIPOS>SUBSTRUCTURE
     1 ATP1362     1 GROUP             4 A     ATP     0 **** ATP A1362
