@<TRIPOS>MOLECULE
4ntc_FAD_1_ligand
   84    89     1     0     0
SMALL
NO_CHARGES


@<TRIPOS>ATOM
     1 PA         -44.0960    20.3240   -17.3500 P.3          1 FAD401   0.0000
     2 O1A        -43.1730    21.2200   -18.1440 O.co2        1 FAD401   0.0000
     3 O2A        -43.7620    20.0490   -15.9040 O.co2        1 FAD401  -1.0000
     4 O5B        -45.5770    20.9420   -17.4140 O.3          1 FAD401   0.0000
     5 C5B        -46.6650    20.2830   -16.7680 C.3          1 FAD401   0.0000
     6 C4B        -47.9360    21.0950   -16.9870 C.3          1 FAD401   0.0000
     7 O4B        -49.0730    20.3300   -16.5710 O.3          1 FAD401   0.0000
     8 C3B        -47.9520    22.3800   -16.1690 C.3          1 FAD401   0.0000
     9 O3B        -48.5000    23.4320   -16.9700 O.3          1 FAD401   0.0000
    10 C2B        -48.9040    22.0740   -15.0300 C.3          1 FAD401   0.0000
    11 O2B        -49.5380    23.2520   -14.5280 O.3          1 FAD401   0.0000
    12 C1B        -49.8820    21.1630   -15.7440 C.3          1 FAD401   0.0000
    13 N9A        -50.7320    20.3730   -14.8340 N.pl3        1 FAD401   0.0000
    14 C8A        -50.3830    19.3410   -14.0420 C.2          1 FAD401   0.0000
    15 N7A        -51.4720    18.8800   -13.3640 N.2          1 FAD401   0.0000
    16 C5A        -52.5270    19.6290   -13.7320 C.ar         1 FAD401   0.0000
    17 C6A        -53.9720    19.6900   -13.4070 C.ar         1 FAD401   0.0000
    18 N6A        -54.5150    18.8240   -12.5180 N.pl3        1 FAD401   0.0000
    19 N1A        -54.7220    20.6390   -14.0240 N.ar         1 FAD401   0.0000
    20 C2A        -54.1920    21.5120   -14.9070 C.ar         1 FAD401   0.0000
    21 N3A        -52.8860    21.5120   -15.2460 N.ar         1 FAD401   0.0000
    22 C4A        -52.0310    20.6110   -14.7010 C.ar         1 FAD401   0.0000
    23 N1         -35.0380    19.3340   -19.5240 N.2          1 FAD401   0.0000
    24 C2         -34.2840    19.8140   -20.5440 C.2          1 FAD401   0.0000
    25 O2         -34.5160    19.4050   -21.6970 O.2          1 FAD401   0.0000
    26 N3         -33.2950    20.7070   -20.3560 N.pl3        1 FAD401   0.0000
    27 C4         -32.9840    21.1840   -19.1420 C.2          1 FAD401   0.0000
    28 O4         -32.0580    22.0080   -18.9900 O.2          1 FAD401   0.0000
    29 C4X        -33.7610    20.7100   -17.9760 C.2          1 FAD401   0.0000
    30 N5         -33.5120    21.1420   -16.7180 N.2          1 FAD401   0.0000
    31 C5X        -34.2330    20.6890   -15.6650 C.ar         1 FAD401   0.0000
    32 C6         -33.9380    21.1490   -14.3780 C.ar         1 FAD401   0.0000
    33 C7         -34.6750    20.6930   -13.2840 C.ar         1 FAD401   0.0000
    34 C7M        -34.3480    21.1980   -11.9000 C.3          1 FAD401   0.0000
    35 C8         -35.7760    19.7050   -13.4920 C.ar         1 FAD401   0.0000
    36 C8M        -36.5780    19.1980   -12.3210 C.3          1 FAD401   0.0000
    37 C9         -36.0680    19.2400   -14.7760 C.ar         1 FAD401   0.0000
    38 C9A        -35.3320    19.6950   -15.8730 C.ar         1 FAD401   0.0000
    39 N10        -35.6080    19.2370   -17.1880 N.pl3        1 FAD401   0.0000
    40 C10        -34.8320    19.7300   -18.2530 C.2          1 FAD401   0.0000
    41 C1'        -36.6870    18.2830   -17.4680 C.3          1 FAD401   0.0000
    42 C2'        -37.8680    19.1190   -17.9950 C.3          1 FAD401   0.0000
    43 O2'        -38.2820    20.0620   -16.9970 O.3          1 FAD401   0.0000
    44 C3'        -39.0820    18.2810   -18.3870 C.3          1 FAD401   0.0000
    45 O3'        -38.6730    17.2550   -19.2980 O.3          1 FAD401   0.0000
    46 C4'        -40.2110    19.0950   -19.0310 C.3          1 FAD401   0.0000
    47 O4'        -40.6100    20.1950   -18.1990 O.3          1 FAD401   0.0000
    48 C5'        -41.4170    18.2010   -19.2820 C.3          1 FAD401   0.0000
    49 O5'        -42.4660    18.9570   -19.8720 O.3          1 FAD401   0.0000
    50 P          -44.0040    18.5620   -19.6150 P.3          1 FAD401   0.0000
    51 O1P        -44.8120    19.5030   -20.4690 O.co2        1 FAD401   0.0000
    52 O2P        -44.1460    17.0800   -19.8090 O.co2        1 FAD401  -1.0000
    53 O3P        -44.2470    18.8790   -18.0470 O.3          1 FAD401   0.0000
    54 H5B1       -46.4786    20.2094   -15.7883 H            1 FAD401   0.0000
    55 H5B2       -46.7805    19.3682   -17.1550 H            1 FAD401   0.0000
    56 H4B        -48.0237    21.3186   -17.9577 H            1 FAD401   0.0000
    57 H3B        -47.0395    22.6122   -15.8324 H            1 FAD401   0.0000
    58 H5         -47.7640    23.8877   -17.4706 H            1 FAD401   0.0000
    59 H2B        -48.4335    21.5840   -14.2961 H            1 FAD401   0.0000
    60 H7         -49.6308    23.9207   -15.2657 H            1 FAD401   0.0000
    61 H1B        -50.4707    21.7206   -16.3292 H            1 FAD401   0.0000
    62 H8A        -49.4589    18.9672   -13.9628 H            1 FAD401   0.0000
    63 H6A1       -55.4908    18.8725   -12.3049 H            1 FAD401   0.0000
    64 H6A2       -53.9400    18.1362   -12.0749 H            1 FAD401   0.0000
    65 H2A        -54.7947    22.1893   -15.3289 H            1 FAD401   0.0000
    66 H13        -32.7745    21.0256   -21.1482 H            1 FAD401   0.0000
    67 H14        -33.1970    21.8064   -14.2410 H            1 FAD401   0.0000
    68 H7M1       -34.9652    20.7752   -11.2364 H            1 FAD401   0.0000
    69 H7M2       -33.4030    20.9620   -11.6737 H            1 FAD401   0.0000
    70 H7M3       -34.4591    22.1914   -11.8728 H            1 FAD401   0.0000
    71 H8M1       -37.2666    18.5490   -12.6446 H            1 FAD401   0.0000
    72 H8M2       -35.9688    18.7419   -11.6723 H            1 FAD401   0.0000
    73 H8M3       -37.0307    19.9667   -11.8692 H            1 FAD401   0.0000
    74 H21        -36.8063    18.5792   -14.9108 H            1 FAD401   0.0000
    75 H1'1       -36.9489    17.7999   -16.6325 H            1 FAD401   0.0000
    76 H1'2       -36.3948    17.6210   -18.1582 H            1 FAD401   0.0000
    77 H2'        -37.5612    19.6261   -18.8004 H            1 FAD401   0.0000
    78 H25        -39.2611    20.2412   -17.0935 H            1 FAD401   0.0000
    79 H3'        -39.4411    17.8438   -17.5625 H            1 FAD401   0.0000
    80 H27        -39.2645    16.4563   -19.1879 H            1 FAD401   0.0000
    81 H4'        -39.8892    19.4544   -19.9069 H            1 FAD401   0.0000
    82 H29        -41.5783    20.3935   -18.3506 H            1 FAD401   0.0000
    83 H5'1       -41.7322    17.8181   -18.4136 H            1 FAD401   0.0000
    84 H5'2       -41.1563    17.4582   -19.8987 H            1 FAD401   0.0000
@<TRIPOS>BOND
     1    1    2      ar
     2    1    3      ar
     3    1    4       1
     4    1   53       1
     5    4    5       1
     6    5    6       1
     7    6    7       1
     8    6    8       1
     9    7   12       1
    10    8    9       1
    11    8   10       1
    12   10   11       1
    13   10   12       1
    14   12   13       1
    15   13   14       1
    16   13   22       1
    17   14   15       2
    18   15   16       1
    19   16   17      ar
    20   16   22      ar
    21   17   18       1
    22   17   19      ar
    23   19   20      ar
    24   20   21      ar
    25   21   22      ar
    26   23   24       1
    27   23   40       2
    28   24   25       2
    29   24   26       1
    30   26   27       1
    31   27   28       2
    32   27   29       1
    33   29   30       2
    34   29   40       1
    35   30   31       1
    36   31   32      ar
    37   31   38      ar
    38   32   33      ar
    39   33   34       1
    40   33   35      ar
    41   35   36       1
    42   35   37      ar
    43   37   38      ar
    44   38   39       1
    45   39   40       1
    46   39   41       1
    47   41   42       1
    48   42   43       1
    49   42   44       1
    50   44   45       1
    51   44   46       1
    52   46   47       1
    53   46   48       1
    54   48   49       1
    55   49   50       1
    56   50   51      ar
    57   50   52      ar
    58   50   53       1
    59   48   84       1
    60    5   54       1
    61    5   55       1
    62    6   56       1
    63    8   57       1
    64    9   58       1
    65   10   59       1
    66   11   60       1
    67   12   61       1
    68   14   62       1
    69   18   63       1
    70   18   64       1
    71   20   65       1
    72   26   66       1
    73   32   67       1
    74   34   68       1
    75   34   69       1
    76   34   70       1
    77   36   71       1
    78   36   72       1
    79   36   73       1
    80   37   74       1
    81   41   75       1
    82   41   76       1
    83   42   77       1
    84   43   78       1
    85   44   79       1
    86   45   80       1
    87   46   81       1
    88   47   82       1
    89   48   83       1
@<TRIPOS>SUBSTRUCTURE
     1 FAD401      1 GROUP             4 A     FAD     0 **** FAD A 401
