@<TRIPOS>MOLECULE
3abx_RCB_1_ligand
   57    59     1     0     0
SMALL
NO_CHARGES


@<TRIPOS>ATOM
     1 O1A        -15.4970     3.0050     0.5730 O.3          1 RCB1001   0.0000
     2 C1B        -12.0630     0.6610     0.0110 C.3          1 RCB1001   0.0000
     3 O1B        -11.0400    -0.0660    -0.6780 O.3          1 RCB1001   0.0000
     4 C1C         -8.8480    -3.5900    -0.0350 C.3          1 RCB1001   0.0000
     5 O1C         -8.2930    -4.7620     0.5660 O.3          1 RCB1001   0.0000
     6 C1D         -6.9720    -5.1590     0.4960 C.ar         1 RCB1001   0.0000
     7 N1D         -3.0110    -6.5430     0.3310 N.2          1 RCB1001   1.0000
     8 C2B        -12.0050     2.1150    -0.4410 C.3          1 RCB1001   0.0000
     9 O2B        -10.7280     2.6290    -0.0640 O.3          1 RCB1001   0.0000
    10 C2C        -10.3530    -3.7710    -0.2100 C.3          1 RCB1001   0.0000
    11 O2C        -10.6210    -4.8950    -1.0610 O.3          1 RCB1001   0.0000
    12 C2D         -5.9010    -4.2610     0.5510 C.ar         1 RCB1001   0.0000
    13 O2D         -2.8250    -7.9220     0.3060 O.co2        1 RCB1001   0.0000
    14 C3B        -13.1220     2.9220     0.2150 C.3          1 RCB1001   0.0000
    15 O3B        -13.1290     4.2680    -0.2780 O.3          1 RCB1001   0.0000
    16 C3C        -11.0070    -2.5070    -0.7750 C.3          1 RCB1001   0.0000
    17 O3C        -12.4310    -2.6330    -0.7190 O.3          1 RCB1001   0.0000
    18 C3D         -4.5700    -4.7090     0.4760 C.ar         1 RCB1001   0.0000
    19 O3D         -1.8600    -5.7330     0.3730 O.co2        1 RCB1001  -1.0000
    20 C4B        -14.4650     2.2670    -0.0890 C.3          1 RCB1001   0.0000
    21 C4C        -10.6040    -1.2510     0.0100 C.3          1 RCB1001   0.0000
    22 C4D         -4.2910    -6.0650     0.3710 C.ar         1 RCB1001   0.0000
    23 C5B        -14.4630     0.7940     0.3300 C.3          1 RCB1001   0.0000
    24 O5B        -13.3580     0.1060    -0.2600 O.3          1 RCB1001   0.0000
    25 C5C         -9.0960    -1.2290     0.2770 C.3          1 RCB1001   0.0000
    26 O5C         -8.6540    -2.4750     0.8420 O.3          1 RCB1001   0.0000
    27 C5D         -5.3670    -6.9610     0.3320 C.ar         1 RCB1001   0.0000
    28 C6B        -15.7170     0.0590    -0.1390 C.3          1 RCB1001   0.0000
    29 O6B        -16.8650     0.5760     0.5370 O.3          1 RCB1001   0.0000
    30 C6C         -8.6890    -0.0850     1.2020 C.3          1 RCB1001   0.0000
    31 O6C         -9.4520    -0.1280     2.4180 O.3          1 RCB1001   0.0000
    32 C6D         -6.6900    -6.5220     0.3950 C.ar         1 RCB1001   0.0000
    33 H1A        -16.1431     3.3558    -0.1048 H            1 RCB1001   0.0000
    34 H1B        -11.8884     0.6176     0.9947 H            1 RCB1001   0.0000
    35 H1C         -8.4146    -3.4153    -0.9191 H            1 RCB1001   0.0000
    36 H2B        -12.1017     2.1591    -1.4353 H            1 RCB1001   0.0000
    37 H5         -10.6233     2.5666     0.9285 H            1 RCB1001   0.0000
    38 H2C        -10.7526    -3.9557     0.6879 H            1 RCB1001   0.0000
    39 H7          -9.7572    -5.3085    -1.3490 H            1 RCB1001   0.0000
    40 H2D         -6.0851    -3.2826     0.6454 H            1 RCB1001   0.0000
    41 H3B        -12.9797     2.9355     1.2047 H            1 RCB1001   0.0000
    42 H10        -13.2736     4.2598    -1.2675 H            1 RCB1001   0.0000
    43 H3C        -10.7285    -2.3965    -1.7290 H            1 RCB1001   0.0000
    44 H12        -12.8416    -1.7281    -0.6072 H            1 RCB1001   0.0000
    45 H3D         -3.8205    -4.0473     0.4984 H            1 RCB1001   0.0000
    46 H4B        -14.6244     2.3152    -1.0750 H            1 RCB1001   0.0000
    47 H4C        -11.0705    -1.2803     0.8940 H            1 RCB1001   0.0000
    48 H5B        -14.3969     0.7334     1.3260 H            1 RCB1001   0.0000
    49 H5C         -8.6281    -1.1019    -0.5976 H            1 RCB1001   0.0000
    50 H5D         -5.1822    -7.9409     0.2570 H            1 RCB1001   0.0000
    51 H6B1       -15.6247    -0.9161     0.0625 H            1 RCB1001   0.0000
    52 H6B2       -15.8271     0.1867    -1.1247 H            1 RCB1001   0.0000
    53 H6B        -16.7156     1.5397     0.7583 H            1 RCB1001   0.0000
    54 H6C1        -8.8540     0.7865     0.7403 H            1 RCB1001   0.0000
    55 H6C2        -7.7166    -0.1678     1.4202 H            1 RCB1001   0.0000
    56 H6C         -9.9704     0.7215     2.5165 H            1 RCB1001   0.0000
    57 H6D         -7.4377    -7.1855     0.3677 H            1 RCB1001   0.0000
@<TRIPOS>BOND
     1    1   20       1
     2    2    3       1
     3    2    8       1
     4    2   24       1
     5    3   21       1
     6    4    5       1
     7    4   10       1
     8    4   26       1
     9    5    6       1
    10    6   12      ar
    11    6   32      ar
    12    7   13      ar
    13    7   19      ar
    14    7   22       1
    15    8    9       1
    16    8   14       1
    17   10   11       1
    18   10   16       1
    19   12   18      ar
    20   14   15       1
    21   14   20       1
    22   16   17       1
    23   16   21       1
    24   18   22      ar
    25   20   23       1
    26   21   25       1
    27   22   27      ar
    28   23   24       1
    29   23   28       1
    30   25   26       1
    31   25   30       1
    32   27   32      ar
    33   28   29       1
    34   30   31       1
    35    1   33       1
    36    2   34       1
    37    4   35       1
    38    8   36       1
    39    9   37       1
    40   10   38       1
    41   11   39       1
    42   12   40       1
    43   14   41       1
    44   15   42       1
    45   16   43       1
    46   17   44       1
    47   18   45       1
    48   20   46       1
    49   21   47       1
    50   23   48       1
    51   25   49       1
    52   27   50       1
    53   28   51       1
    54   28   52       1
    55   29   53       1
    56   30   54       1
    57   30   55       1
    58   31   56       1
    59   32   57       1
@<TRIPOS>SUBSTRUCTURE
     1 RCB1001     1 GROUP             4 A     RCB     0 **** RCB A1001
