@<TRIPOS>MOLECULE
4s1i_PLP_2_ligand
   24    24     1     0     0
SMALL
NO_CHARGES


@<TRIPOS>ATOM
     1 N1          31.2990   -37.1020   -10.8320 N.ar         1 PLP302   0.0000
     2 C2          30.0490   -36.8330   -10.4020 C.ar         1 PLP302   0.0000
     3 C2A         29.8040   -35.5470    -9.7710 C.3          1 PLP302   0.0000
     4 C3          28.9910   -37.7750   -10.5880 C.ar         1 PLP302   0.0000
     5 O3          27.8060   -37.5760   -10.2430 O.3          1 PLP302   0.0000
     6 C4          29.2360   -39.0460   -11.2200 C.ar         1 PLP302   0.0000
     7 C4A         28.1610   -39.9950   -11.3960 C.2          1 PLP302   0.0000
     8 O4A         28.1970   -41.0380   -12.0030 O.2          1 PLP302   0.0000
     9 C5          30.6000   -39.1810   -11.5960 C.ar         1 PLP302   0.0000
    10 C6          31.5530   -38.1740   -11.3600 C.ar         1 PLP302   0.0000
    11 C5A         31.0600   -40.4000   -12.2460 C.3          1 PLP302   0.0000
    12 O4P         32.3140   -39.9480   -12.5780 O.3          1 PLP302   0.0000
    13 P           33.4150   -40.7950   -13.2950 P.3          1 PLP302   0.0000
    14 O1P         33.2630   -40.2430   -14.6620 O.co2        1 PLP302   0.0000
    15 O2P         33.1300   -42.2350   -13.3080 O.co2        1 PLP302  -1.0000
    16 O3P         34.5970   -40.4780   -12.4320 O.co2        1 PLP302  -1.0000
    17 H2A1        28.8423   -35.4844    -9.5042 H            1 PLP302   0.0000
    18 H2A2        30.3815   -35.4585    -8.9594 H            1 PLP302   0.0000
    19 H2A3        30.0196   -34.8132   -10.4152 H            1 PLP302   0.0000
    20 H4          27.5504   -36.7132    -9.8068 H            1 PLP302   0.0000
    21 H4A         27.2886   -39.7616   -10.9666 H            1 PLP302   0.0000
    22 H6          32.4969   -38.3461   -11.6418 H            1 PLP302   0.0000
    23 H5A1        30.5128   -40.6354   -13.0493 H            1 PLP302   0.0000
    24 H5A2        31.0873   -41.1802   -11.6210 H            1 PLP302   0.0000
@<TRIPOS>BOND
     1    1    2      ar
     2    1   10      ar
     3    2    3       1
     4    2    4      ar
     5    4    5       1
     6    4    6      ar
     7    6    7       1
     8    6    9      ar
     9    7    8       2
    10    9   10      ar
    11    9   11       1
    12   11   12       1
    13   12   13       1
    14   13   14      ar
    15   13   15      ar
    16   13   16      ar
    17    3   17       1
    18    3   18       1
    19    3   19       1
    20    5   20       1
    21    7   21       1
    22   10   22       1
    23   11   23       1
    24   11   24       1
@<TRIPOS>SUBSTRUCTURE
     1 PLP302      1 GROUP             4 B     PLP     0 **** PLP B 302
