@<TRIPOS>MOLECULE
4xgx_ADP_1_ligand
   39    41     1     0     0
SMALL
NO_CHARGES


@<TRIPOS>ATOM
     1 PB          -8.0690    16.9830    -4.8990 P.3          1 ADP403   0.0000
     2 O1B         -8.2470    18.4300    -5.3000 O.co2        1 ADP403   0.0000
     3 O2B         -8.7000    16.6620    -3.5600 O.co2        1 ADP403  -1.0000
     4 O3B         -6.6660    16.4700    -5.0980 O.co2        1 ADP403  -1.0000
     5 PA          -9.3950    16.6060    -7.4180 P.3          1 ADP403   0.0000
     6 O1A         -8.1560    17.0470    -8.1640 O.co2        1 ADP403   0.0000
     7 O2A        -10.2720    15.5210    -7.9980 O.co2        1 ADP403  -1.0000
     8 O3A         -8.9490    16.1100    -5.9420 O.3          1 ADP403   0.0000
     9 O5'        -10.2790    17.9210    -7.1260 O.3          1 ADP403   0.0000
    10 C5'        -11.3460    17.9420    -6.1760 C.3          1 ADP403   0.0000
    11 C4'        -11.8070    19.3880    -6.0970 C.3          1 ADP403   0.0000
    12 O4'        -12.5180    19.7120    -7.2930 O.3          1 ADP403   0.0000
    13 C3'        -12.7500    19.7140    -4.9570 C.3          1 ADP403   0.0000
    14 O3'        -12.0360    20.0880    -3.7750 O.3          1 ADP403   0.0000
    15 C2'        -13.5650    20.8520    -5.5370 C.3          1 ADP403   0.0000
    16 O2'        -12.8500    22.0840    -5.4360 O.3          1 ADP403   0.0000
    17 C1'        -13.6520    20.5310    -7.0100 C.3          1 ADP403   0.0000
    18 N9         -14.8180    19.7150    -7.4080 N.pl3        1 ADP403   0.0000
    19 C8         -15.5960    18.9440    -6.6210 C.2          1 ADP403   0.0000
    20 N7         -16.5540    18.3270    -7.3550 N.2          1 ADP403   0.0000
    21 C5         -16.3700    18.7160    -8.6370 C.ar         1 ADP403   0.0000
    22 C6         -17.0200    18.4570    -9.9220 C.ar         1 ADP403   0.0000
    23 N6         -18.0560    17.6290    -9.8920 N.pl3        1 ADP403   0.0000
    24 N1         -16.5650    19.0360   -11.0520 N.ar         1 ADP403   0.0000
    25 C2         -15.5020    19.8650   -10.9990 C.ar         1 ADP403   0.0000
    26 N3         -14.8550    20.1530    -9.8610 N.ar         1 ADP403   0.0000
    27 C4         -15.2350    19.6270    -8.6690 C.ar         1 ADP403   0.0000
    28 H5'1       -11.0220    17.6311    -5.2825 H            1 ADP403   0.0000
    29 H5'2       -12.0952    17.3545    -6.4818 H            1 ADP403   0.0000
    30 H4'        -11.0033    19.9793    -6.0296 H            1 ADP403   0.0000
    31 H3'        -13.3417    18.9306    -4.7667 H            1 ADP403   0.0000
    32 H5         -12.6864    20.2959    -3.0444 H            1 ADP403   0.0000
    33 H2'        -14.4701    20.9125    -5.1162 H            1 ADP403   0.0000
    34 H7         -13.1127    22.6847    -6.1910 H            1 ADP403   0.0000
    35 H1'        -13.6162    21.3715    -7.5507 H            1 ADP403   0.0000
    36 H9         -15.4819    18.8417    -5.6328 H            1 ADP403   0.0000
    37 H10        -18.5452    17.4095   -10.7361 H            1 ADP403   0.0000
    38 H11        -18.3477    17.2244    -9.0253 H            1 ADP403   0.0000
    39 H12        -15.1818    20.2843   -11.8485 H            1 ADP403   0.0000
@<TRIPOS>BOND
     1    1    2      ar
     2    1    3      ar
     3    1    4      ar
     4    1    8       1
     5    5    6      ar
     6    5    7      ar
     7    5    8       1
     8    5    9       1
     9    9   10       1
    10   10   11       1
    11   11   12       1
    12   11   13       1
    13   12   17       1
    14   13   14       1
    15   13   15       1
    16   15   16       1
    17   15   17       1
    18   17   18       1
    19   18   19       1
    20   18   27       1
    21   19   20       2
    22   20   21       1
    23   21   22      ar
    24   21   27      ar
    25   22   23       1
    26   22   24      ar
    27   24   25      ar
    28   25   26      ar
    29   26   27      ar
    30   25   39       1
    31   23   38       1
    32   23   37       1
    33   10   28       1
    34   10   29       1
    35   11   30       1
    36   13   31       1
    37   14   32       1
    38   15   33       1
    39   16   34       1
    40   17   35       1
    41   19   36       1
@<TRIPOS>SUBSTRUCTURE
     1 ADP403      1 GROUP             4 A     ADP     0 **** ADP A 403
