@<TRIPOS>MOLECULE
1lua_NAP_1_ligand
   73    77     1     0     0
SMALL
NO_CHARGES


@<TRIPOS>ATOM
     1 PA          36.0380    33.3010    44.2410 P.3          1 NAP456   0.0000
     2 O1A         35.8310    34.7020    44.5930 O.co2        1 NAP456   0.0000
     3 O2A         36.7640    32.4330    45.1670 O.co2        1 NAP456  -1.0000
     4 O5B         36.7420    33.3020    42.7680 O.3          1 NAP456   0.0000
     5 C5B         36.7760    32.1150    41.9530 C.3          1 NAP456   0.0000
     6 C4B         38.0580    32.0650    41.1410 C.3          1 NAP456   0.0000
     7 O4B         38.0240    33.0750    40.1560 O.3          1 NAP456   0.0000
     8 C3B         39.3400    32.3140    41.8910 C.3          1 NAP456   0.0000
     9 O3B         39.7580    31.1370    42.5890 O.3          1 NAP456   0.0000
    10 C2B         40.3180    32.6240    40.7570 C.3          1 NAP456   0.0000
    11 O2B         40.9280    31.4380    40.1640 O.3          1 NAP456   0.0000
    12 C1B         39.3930    33.2180    39.6810 C.3          1 NAP456   0.0000
    13 N9A         39.6430    34.6470    39.3760 N.pl3        1 NAP456   0.0000
    14 C8A         39.5960    35.7660    40.2030 C.2          1 NAP456   0.0000
    15 N7A         39.8860    36.8750    39.5640 N.2          1 NAP456   0.0000
    16 C5A         40.1370    36.4780    38.2650 C.ar         1 NAP456   0.0000
    17 C6A         40.4960    37.1950    37.0940 C.ar         1 NAP456   0.0000
    18 N6A         40.6580    38.5120    37.1040 N.pl3        1 NAP456   0.0000
    19 N1A         40.6770    36.4900    35.9390 N.ar         1 NAP456   0.0000
    20 C2A         40.5090    35.1440    35.9180 C.ar         1 NAP456   0.0000
    21 N3A         40.1660    34.3920    36.9780 N.ar         1 NAP456   0.0000
    22 C4A         39.9920    35.1310    38.1300 C.ar         1 NAP456   0.0000
    23 O3          34.6380    32.6360    43.8690 O.3          1 NAP456   0.0000
    24 PN          33.5130    31.7950    44.6570 P.3          1 NAP456   0.0000
    25 O1N         33.8570    30.3690    44.5420 O.co2        1 NAP456   0.0000
    26 O2N         33.4400    32.3960    46.0330 O.co2        1 NAP456  -1.0000
    27 O5D         32.1250    32.1950    44.0490 O.3          1 NAP456   0.0000
    28 C5D         31.7720    31.7570    42.7340 C.3          1 NAP456   0.0000
    29 C4D         30.7690    32.7140    42.0790 C.3          1 NAP456   0.0000
    30 O4D         29.4390    32.4200    42.5110 O.3          1 NAP456   0.0000
    31 C3D         30.9760    34.2200    42.3710 C.3          1 NAP456   0.0000
    32 O3D         30.7800    35.0690    41.2280 O.3          1 NAP456   0.0000
    33 C2D         29.9850    34.5650    43.4790 C.3          1 NAP456   0.0000
    34 O2D         29.4800    35.8780    43.3850 O.3          1 NAP456   0.0000
    35 C1D         28.8700    33.5030    43.2580 C.3          1 NAP456   0.0000
    36 N1N         28.2370    33.0720    44.5320 N.ar         1 NAP456   1.0000
    37 C2N         26.9150    33.5390    44.6950 C.ar         1 NAP456   0.0000
    38 C3N         26.2180    33.1820    45.9090 C.ar         1 NAP456   0.0000
    39 C7N         24.8420    33.6590    46.1650 C.2          1 NAP456   0.0000
    40 O7N         24.0850    33.1290    46.9850 O.2          1 NAP456   0.0000
    41 N7N         24.3370    34.6950    45.4810 N.am         1 NAP456   0.0000
    42 C4N         26.8870    32.3620    46.8490 C.ar         1 NAP456   0.0000
    43 C5N         28.1690    31.9260    46.6740 C.ar         1 NAP456   0.0000
    44 C6N         28.8520    32.2810    45.5150 C.ar         1 NAP456   0.0000
    45 P2B         42.5080    31.2620    39.8360 P.3          1 NAP456   0.0000
    46 O1X         42.8710    29.8550    40.0670 O.co2        1 NAP456   0.0000
    47 O2X         42.5630    31.6610    38.4160 O.co2        1 NAP456  -1.0000
    48 O3X         43.1890    32.2330    40.7050 O.co2        1 NAP456  -1.0000
    49 H5B1        35.9926    32.1198    41.3315 H            1 NAP456   0.0000
    50 H5B2        36.7284    31.3090    42.5431 H            1 NAP456   0.0000
    51 H4B         38.1176    31.1755    40.6880 H            1 NAP456   0.0000
    52 H3B         39.2498    33.0912    42.5137 H            1 NAP456   0.0000
    53 H5          40.3500    30.5907    41.9965 H            1 NAP456   0.0000
    54 H2B         41.0116    33.2842    41.0452 H            1 NAP456   0.0000
    55 H1B         39.4976    32.6875    38.8398 H            1 NAP456   0.0000
    56 H8A         39.3668    35.7288    41.1757 H            1 NAP456   0.0000
    57 H6A1        40.9112    38.9910    36.2635 H            1 NAP456   0.0000
    58 H6A2        40.5269    39.0255    37.9520 H            1 NAP456   0.0000
    59 H2A         40.6514    34.6749    35.0464 H            1 NAP456   0.0000
    60 H5D1        31.3629    30.8464    42.7928 H            1 NAP456   0.0000
    61 H5D2        32.5979    31.7157    42.1717 H            1 NAP456   0.0000
    62 H4D         30.8116    32.5800    41.0889 H            1 NAP456   0.0000
    63 H3D         31.9045    34.3557    42.7166 H            1 NAP456   0.0000
    64 H16         31.4280    34.8158    40.5097 H            1 NAP456   0.0000
    65 H2D         30.4127    34.4282    44.3725 H            1 NAP456   0.0000
    66 H18         30.2355    36.5306    43.4422 H            1 NAP456   0.0000
    67 H1D         28.1596    33.9218    42.6924 H            1 NAP456   0.0000
    68 H2N         26.4751    34.0989    43.9928 H            1 NAP456   0.0000
    69 H7N1        23.4050    35.0080    45.6635 H            1 NAP456   0.0000
    70 H7N2        24.8922    35.1550    44.7881 H            1 NAP456   0.0000
    71 H4N         26.3989    32.0899    47.6783 H            1 NAP456   0.0000
    72 H5N         28.6110    31.3593    47.3693 H            1 NAP456   0.0000
    73 H6N         29.7925    31.9688    45.3807 H            1 NAP456   0.0000
@<TRIPOS>BOND
     1    1    2      ar
     2    1    3      ar
     3    1    4       1
     4    1   23       1
     5    4    5       1
     6    5    6       1
     7    6    7       1
     8    6    8       1
     9    7   12       1
    10    8    9       1
    11    8   10       1
    12   10   11       1
    13   10   12       1
    14   11   45       1
    15   12   13       1
    16   13   14       1
    17   13   22       1
    18   14   15       2
    19   15   16       1
    20   16   17      ar
    21   16   22      ar
    22   17   18       1
    23   17   19      ar
    24   19   20      ar
    25   20   21      ar
    26   21   22      ar
    27   23   24       1
    28   24   25      ar
    29   24   26      ar
    30   24   27       1
    31   27   28       1
    32   28   29       1
    33   29   30       1
    34   29   31       1
    35   30   35       1
    36   31   32       1
    37   31   33       1
    38   33   34       1
    39   33   35       1
    40   35   36       1
    41   36   37      ar
    42   36   44      ar
    43   37   38      ar
    44   38   39       1
    45   38   42      ar
    46   39   40       2
    47   39   41      am
    48   42   43      ar
    49   43   44      ar
    50   45   46      ar
    51   45   47      ar
    52   45   48      ar
    53   43   72       1
    54    5   49       1
    55    5   50       1
    56    6   51       1
    57    8   52       1
    58    9   53       1
    59   10   54       1
    60   12   55       1
    61   14   56       1
    62   18   57       1
    63   18   58       1
    64   20   59       1
    65   44   73       1
    66   28   60       1
    67   28   61       1
    68   29   62       1
    69   31   63       1
    70   32   64       1
    71   33   65       1
    72   34   66       1
    73   35   67       1
    74   37   68       1
    75   41   69       1
    76   41   70       1
    77   42   71       1
@<TRIPOS>SUBSTRUCTURE
     1 NAP456      1 GROUP             4 A     NAP     0 **** NAP A 456
