@<TRIPOS>MOLECULE
3a5m_ATP_1_ligand
   43    45     1     0     0
SMALL
NO_CHARGES


@<TRIPOS>ATOM
     1 PG          -6.3230    -1.6690    19.6920 P.3          1 ATP376   0.0000
     2 O1G         -5.1450    -1.6730    18.7600 O.co2        1 ATP376   0.0000
     3 O2G         -5.9960    -1.7900    21.1760 O.co2        1 ATP376  -1.0000
     4 O3G         -7.2820    -0.5560    19.3390 O.co2        1 ATP376  -1.0000
     5 PB          -7.9490    -4.1510    19.9240 P.3          1 ATP376   0.0000
     6 O1B         -8.0750    -3.9750    21.4400 O.co2        1 ATP376   0.0000
     7 O2B         -9.1820    -4.2510    19.0880 O.co2        1 ATP376  -1.0000
     8 O3B         -7.0270    -3.0570    19.2040 O.3          1 ATP376   0.0000
     9 PA          -7.0520    -6.8000    20.5100 P.3          1 ATP376   0.0000
    10 O1A         -6.1220    -6.6810    21.6970 O.co2        1 ATP376   0.0000
    11 O2A         -8.4750    -7.2190    20.7430 O.co2        1 ATP376  -1.0000
    12 O3A         -7.0120    -5.4310    19.6730 O.3          1 ATP376   0.0000
    13 O5'         -6.4760    -7.9050    19.5170 O.3          1 ATP376   0.0000
    14 C5'         -6.6630    -7.8470    18.1220 C.3          1 ATP376   0.0000
    15 C4'         -5.7160    -8.7720    17.3970 C.3          1 ATP376   0.0000
    16 O4'         -5.3320    -9.8220    18.2560 O.3          1 ATP376   0.0000
    17 C3'         -6.3680    -9.4310    16.1910 C.3          1 ATP376   0.0000
    18 O3'         -5.4790    -9.1610    15.1000 O.3          1 ATP376   0.0000
    19 C2'         -6.4070   -10.9040    16.5750 C.3          1 ATP376   0.0000
    20 O2'         -6.1970   -11.7900    15.4910 O.3          1 ATP376   0.0000
    21 C1'         -5.2010   -10.9950    17.4990 C.3          1 ATP376   0.0000
    22 N9          -5.2440   -12.2010    18.3160 N.pl3        1 ATP376   0.0000
    23 C8          -6.2440   -12.5750    19.1250 C.2          1 ATP376   0.0000
    24 N7          -5.9510   -13.7550    19.7550 N.2          1 ATP376   0.0000
    25 C5          -4.7430   -14.1270    19.3250 C.ar         1 ATP376   0.0000
    26 C6          -3.8770   -15.2650    19.5760 C.ar         1 ATP376   0.0000
    27 N6          -4.3310   -16.2310    20.4140 N.pl3        1 ATP376   0.0000
    28 N1          -2.6710   -15.2950    18.9700 N.ar         1 ATP376   0.0000
    29 C2          -2.2920   -14.3250    18.1330 C.ar         1 ATP376   0.0000
    30 N3          -3.0470   -13.2690    17.8400 N.ar         1 ATP376   0.0000
    31 C4          -4.2640   -13.1140    18.3880 C.ar         1 ATP376   0.0000
    32 H5'1        -6.5030    -6.9100    17.8116 H            1 ATP376   0.0000
    33 H5'2        -7.6032    -8.1128    17.9090 H            1 ATP376   0.0000
    34 H4'         -4.9062    -8.2630    17.1052 H            1 ATP376   0.0000
    35 H3'         -7.2842    -9.0682    16.0208 H            1 ATP376   0.0000
    36 H5          -6.0021    -9.1059    14.2495 H            1 ATP376   0.0000
    37 H2'         -7.2512   -11.1262    17.0627 H            1 ATP376   0.0000
    38 H7          -6.6887   -12.6444    15.6588 H            1 ATP376   0.0000
    39 H1'         -4.3552   -10.9692    16.9661 H            1 ATP376   0.0000
    40 H9          -7.0921   -12.0606    19.2520 H            1 ATP376   0.0000
    41 H10         -3.7625   -17.0298    20.6109 H            1 ATP376   0.0000
    42 H11         -5.2340   -16.1441    20.8347 H            1 ATP376   0.0000
    43 H12         -1.3919   -14.3964    17.7033 H            1 ATP376   0.0000
@<TRIPOS>BOND
     1    1    2      ar
     2    1    3      ar
     3    1    4      ar
     4    1    8       1
     5    5    6      ar
     6    5    7      ar
     7    5    8       1
     8    5   12       1
     9    9   10      ar
    10    9   11      ar
    11    9   12       1
    12    9   13       1
    13   13   14       1
    14   14   15       1
    15   15   16       1
    16   15   17       1
    17   16   21       1
    18   17   18       1
    19   17   19       1
    20   19   20       1
    21   19   21       1
    22   21   22       1
    23   22   23       1
    24   22   31       1
    25   23   24       2
    26   24   25       1
    27   25   26      ar
    28   25   31      ar
    29   26   27       1
    30   26   28      ar
    31   28   29      ar
    32   29   30      ar
    33   30   31      ar
    34   29   43       1
    35   27   42       1
    36   27   41       1
    37   23   40       1
    38   14   32       1
    39   14   33       1
    40   15   34       1
    41   17   35       1
    42   18   36       1
    43   19   37       1
    44   20   38       1
    45   21   39       1
@<TRIPOS>SUBSTRUCTURE
     1 ATP376      1 GROUP             4 C     ATP     0 **** ATP C 376
