@<TRIPOS>MOLECULE
1fmj_RTL_1_ligand
   49    49     1     0     0
SMALL
NO_CHARGES


@<TRIPOS>ATOM
     1 C1          24.4830    -7.0460    41.5760 C.3          1 RTL401   0.0000
     2 C2          25.6940    -7.8400    40.9890 C.2          1 RTL401   0.0000
     3 C3          25.5770    -9.3450    41.1960 C.2          1 RTL401   0.0000
     4 C4          24.5610   -10.2420    41.8990 C.3          1 RTL401   0.0000
     5 C5          23.4720    -9.2990    42.4170 C.2          1 RTL401   0.0000
     6 C6          23.3790    -7.9030    42.3030 C.2          1 RTL401   0.0000
     7 C7          22.2400    -7.1210    42.8530 C.2          1 RTL401   0.0000
     8 C8          21.0420    -6.9600    42.2180 C.2          1 RTL401   0.0000
     9 C9          19.9120    -6.1880    42.7520 C.2          1 RTL401   0.0000
    10 C10         18.7640    -6.1210    41.9840 C.2          1 RTL401   0.0000
    11 C11         17.4800    -5.4330    42.2420 C.2          1 RTL401   0.0000
    12 C12         17.0680    -4.7040    41.1510 C.2          1 RTL401   0.0000
    13 C13         15.9120    -3.8420    40.8290 C.2          1 RTL401   0.0000
    14 C14         15.5410    -3.1270    39.7250 C.3          1 RTL401   0.0000
    15 C15         14.6390    -3.7510    38.7430 C.3          1 RTL401   0.0000
    16 O1          13.3250    -3.5430    39.0460 O.3          1 RTL401   0.0000
    17 C16         23.9890    -6.3370    40.2990 C.3          1 RTL401   0.0000
    18 C17         25.1710    -6.0030    42.4710 C.3          1 RTL401   0.0000
    19 C18         22.4100   -10.1170    43.1680 C.3          1 RTL401   0.0000
    20 C19         20.0380    -5.4910    44.1200 C.3          1 RTL401   0.0000
    21 C20         15.0180    -3.8250    42.0800 C.2          1 RTL401   0.0000
    22 H1          26.4661    -7.4053    40.5254 H            1 RTL401   0.0000
    23 H2          26.3294    -9.8566    40.7811 H            1 RTL401   0.0000
    24 H3          24.9917   -10.7292    42.6587 H            1 RTL401   0.0000
    25 H4          24.1741   -10.9027    41.2558 H            1 RTL401   0.0000
    26 H5          22.3591    -6.6851    43.7451 H            1 RTL401   0.0000
    27 H6          20.9256    -7.3984    41.3268 H            1 RTL401   0.0000
    28 H7          18.8089    -6.6163    41.1164 H            1 RTL401   0.0000
    29 H8          16.9744    -5.4908    43.1028 H            1 RTL401   0.0000
    30 H9          17.7092    -4.7748    40.3869 H            1 RTL401   0.0000
    31 H10         16.3797    -2.8818    39.2387 H            1 RTL401   0.0000
    32 H11         15.0899    -2.2963    40.0513 H            1 RTL401   0.0000
    33 H12         14.8136    -4.7355    38.7253 H            1 RTL401   0.0000
    34 H13         14.8269    -3.3628    37.8408 H            1 RTL401   0.0000
    35 H14         12.7501    -3.9823    38.3556 H            1 RTL401   0.0000
    36 H15         23.1930    -5.7727    40.5178 H            1 RTL401   0.0000
    37 H16         24.7187    -5.7576    39.9359 H            1 RTL401   0.0000
    38 H17         23.7349    -7.0209    39.6151 H            1 RTL401   0.0000
    39 H18         24.4781    -5.4280    42.9061 H            1 RTL401   0.0000
    40 H19         25.7070    -6.4693    43.1748 H            1 RTL401   0.0000
    41 H20         25.7756    -5.4331    41.9145 H            1 RTL401   0.0000
    42 H21         21.6965    -9.5045    43.5082 H            1 RTL401   0.0000
    43 H22         22.0051   -10.7879    42.5467 H            1 RTL401   0.0000
    44 H23         22.8373   -10.5910    43.9379 H            1 RTL401   0.0000
    45 H24         19.1849    -5.0137    44.3308 H            1 RTL401   0.0000
    46 H25         20.2210    -6.1744    44.8267 H            1 RTL401   0.0000
    47 H26         20.7899    -4.8324    44.0906 H            1 RTL401   0.0000
    48 H27         14.1698    -3.2954    42.0812 H            1 RTL401   0.0000
    49 H28         15.2848    -4.3436    42.8923 H            1 RTL401   0.0000
@<TRIPOS>BOND
     1    1    2       1
     2    1    6       1
     3    1   17       1
     4    1   18       1
     5    2    3       2
     6    3    4       1
     7    4    5       1
     8    5    6       2
     9    5   19       1
    10    6    7       1
    11    7    8       2
    12    8    9       1
    13    9   10       2
    14    9   20       1
    15   10   11       1
    16   11   12       2
    17   12   13       1
    18   13   14       1
    19   13   21       2
    20   14   15       1
    21   15   16       1
    22    2   22       1
    23    3   23       1
    24    4   24       1
    25    4   25       1
    26    7   26       1
    27    8   27       1
    28   10   28       1
    29   11   29       1
    30   12   30       1
    31   14   31       1
    32   14   32       1
    33   15   33       1
    34   15   34       1
    35   16   35       1
    36   17   36       1
    37   17   37       1
    38   17   38       1
    39   18   39       1
    40   18   40       1
    41   18   41       1
    42   19   42       1
    43   19   43       1
    44   19   44       1
    45   20   45       1
    46   20   46       1
    47   20   47       1
    48   21   48       1
    49   21   49       1
@<TRIPOS>SUBSTRUCTURE
     1 RTL401      1 GROUP             4 A     RTL     0 **** RTL A 401
