@<TRIPOS>MOLECULE
1q6y_COA_1_ligand
   80    82     1     0     0
SMALL
NO_CHARGES


@<TRIPOS>ATOM
     1 N1A         42.9530     3.1500    28.3410 N.ar         1 COA500   0.0000
     2 C2A         41.9450     2.3790    28.9150 C.ar         1 COA500   0.0000
     3 N3A         41.2660     1.3780    28.2200 N.ar         1 COA500   0.0000
     4 C4A         41.6450     1.1860    26.9330 C.ar         1 COA500   0.0000
     5 C5A         42.6430     1.9530    26.3150 C.ar         1 COA500   0.0000
     6 C6A         43.3020     2.9830    27.0270 C.ar         1 COA500   0.0000
     7 N6A         44.2120     3.8020    26.4810 N.pl3        1 COA500   0.0000
     8 N7A         42.6970     1.5200    25.0310 N.2          1 COA500   0.0000
     9 C8A         41.8040     0.5270    24.8430 C.2          1 COA500   0.0000
    10 N9A         41.1460     0.3080    26.0090 N.pl3        1 COA500   0.0000
    11 C1B         40.1580    -0.7470    26.3610 C.3          1 COA500   0.0000
    12 C2B         38.9330    -0.8600    25.4760 C.3          1 COA500   0.0000
    13 O2B         37.9160     0.0660    25.6360 O.3          1 COA500   0.0000
    14 C3B         38.4320    -2.1730    25.9920 C.3          1 COA500   0.0000
    15 O3B         37.6610    -1.8690    27.1120 O.3          1 COA500   0.0000
    16 P3B         36.1020    -2.3010    27.2340 P.3          1 COA500   0.0000
    17 O7A         35.3340    -1.5680    26.2240 O.co2        1 COA500   0.0000
    18 O8A         35.7210    -2.0800    28.6940 O.co2        1 COA500  -1.0000
    19 O9A         35.9920    -3.8140    27.0500 O.co2        1 COA500  -1.0000
    20 C4B         39.6780    -2.9740    26.3410 C.3          1 COA500   0.0000
    21 O4B         40.7380    -2.0310    26.2650 O.3          1 COA500   0.0000
    22 C5B         39.9410    -4.0720    25.3540 C.3          1 COA500   0.0000
    23 O5B         39.6390    -3.6260    24.0250 O.3          1 COA500   0.0000
    24 P1A         40.1980    -4.5140    22.7870 P.3          1 COA500   0.0000
    25 O1A         41.6880    -4.5710    22.7420 O.co2        1 COA500   0.0000
    26 O2A         39.6290    -3.8440    21.5470 O.co2        1 COA500  -1.0000
    27 O3A         39.4030    -5.9000    23.0720 O.3          1 COA500   0.0000
    28 P2A         39.8020    -7.3290    22.5810 P.3          1 COA500   0.0000
    29 O4A         41.2420    -7.6150    22.9140 O.co2        1 COA500   0.0000
    30 O5A         38.7330    -8.2890    23.1940 O.co2        1 COA500  -1.0000
    31 O6A         39.5200    -7.2830    20.9610 O.3          1 COA500   0.0000
    32 CBP         40.0680    -7.0750    18.6750 C.3          1 COA500   0.0000
    33 CCP         40.5910    -7.2870    20.0710 C.3          1 COA500   0.0000
    34 CDP         41.3050    -7.0040    17.8200 C.3          1 COA500   0.0000
    35 CEP         39.1390    -8.2730    18.3210 C.3          1 COA500   0.0000
    36 CAP         39.2840    -5.7410    18.6330 C.3          1 COA500   0.0000
    37 OAP         40.0900    -4.6220    19.0870 O.3          1 COA500   0.0000
    38 C9P         38.6500    -5.5690    17.2690 C.2          1 COA500   0.0000
    39 O9P         37.7000    -6.5170    16.7450 O.2          1 COA500   0.0000
    40 N8P         39.0360    -4.4590    16.6070 N.am         1 COA500   0.0000
    41 C7P         38.3590    -4.0770    15.4080 C.3          1 COA500   0.0000
    42 C6P         38.8170    -4.9000    14.2640 C.3          1 COA500   0.0000
    43 C5P         40.3040    -4.9530    14.1090 C.2          1 COA500   0.0000
    44 O5P         40.9440    -3.9580    13.7690 O.2          1 COA500   0.0000
    45 N4P         40.8720    -6.1640    14.2990 N.am         1 COA500   0.0000
    46 C3P         42.3030    -6.4040    14.5650 C.3          1 COA500   0.0000
    47 C2P         43.0140    -6.8870    13.3310 C.3          1 COA500   0.0000
    48 S1P         44.8510    -6.8270    13.4960 S.3          1 COA500   0.0000
    49 H2A         41.6968     2.5508    29.8684 H            1 COA500   0.0000
    50 H6A1        44.4747     3.6897    25.5227 H            1 COA500   0.0000
    51 H6A2        44.6282     4.5253    27.0320 H            1 COA500   0.0000
    52 H8A         41.6521     0.0340    23.9863 H            1 COA500   0.0000
    53 H1B         39.8583    -0.6018    27.3039 H            1 COA500   0.0000
    54 H2B         39.1964    -0.9344    24.5142 H            1 COA500   0.0000
    55 H7          37.0707    -0.4069    25.8847 H            1 COA500   0.0000
    56 H3B         37.8861    -2.6446    25.2994 H            1 COA500   0.0000
    57 H4B         39.6066    -3.3458    27.2666 H            1 COA500   0.0000
    58 H5B1        39.3673    -4.8603    25.5762 H            1 COA500   0.0000
    59 H5B2        40.9042    -4.3363    25.4028 H            1 COA500   0.0000
    60 HCP1        41.0658    -8.1657    20.1215 H            1 COA500   0.0000
    61 HCP2        41.2257    -6.5511    20.3067 H            1 COA500   0.0000
    62 HDP1        41.0427    -6.8626    16.8654 H            1 COA500   0.0000
    63 HDP2        41.8775    -6.2428    18.1246 H            1 COA500   0.0000
    64 HDP3        41.8164    -7.8594    17.9020 H            1 COA500   0.0000
    65 HEP1        38.7790    -8.1536    17.3957 H            1 COA500   0.0000
    66 HEP2        39.6608    -9.1248    18.3683 H            1 COA500   0.0000
    67 HEP3        38.3805    -8.3102    18.9716 H            1 COA500   0.0000
    68 HAP         38.5322    -5.8328    19.2860 H            1 COA500   0.0000
    69 H21         39.9798    -4.5108    20.0747 H            1 COA500   0.0000
    70 H8P         39.7931    -3.9055    16.9540 H            1 COA500   0.0000
    71 H7P1        38.5485    -3.1140    15.2164 H            1 COA500   0.0000
    72 H7P2        37.3749    -4.2050    15.5315 H            1 COA500   0.0000
    73 H6P1        38.4269    -4.5184    13.4260 H            1 COA500   0.0000
    74 H6P2        38.4809    -5.8329    14.3933 H            1 COA500   0.0000
    75 H4P         40.2730    -6.9636    14.2558 H            1 COA500   0.0000
    76 H3P1        42.3896    -7.0951    15.2825 H            1 COA500   0.0000
    77 H3P2        42.7251    -5.5508    14.8713 H            1 COA500   0.0000
    78 H2P1        42.7433    -6.3107    12.5599 H            1 COA500   0.0000
    79 H2P2        42.7397    -7.8321    13.1533 H            1 COA500   0.0000
    80 H1P         45.1362    -7.4062    14.2597 H            1 COA500   0.0000
@<TRIPOS>BOND
     1    1    2      ar
     2    1    6      ar
     3    2    3      ar
     4    3    4      ar
     5    4    5      ar
     6    4   10       1
     7    5    6      ar
     8    5    8       1
     9    6    7       1
    10    8    9       2
    11    9   10       1
    12   10   11       1
    13   11   12       1
    14   11   21       1
    15   12   13       1
    16   12   14       1
    17   14   15       1
    18   14   20       1
    19   15   16       1
    20   16   17      ar
    21   16   18      ar
    22   16   19      ar
    23   20   21       1
    24   20   22       1
    25   22   23       1
    26   23   24       1
    27   24   25      ar
    28   24   26      ar
    29   24   27       1
    30   27   28       1
    31   28   29      ar
    32   28   30      ar
    33   28   31       1
    34   31   33       1
    35   32   33       1
    36   32   34       1
    37   32   35       1
    38   32   36       1
    39   36   37       1
    40   36   38       1
    41   38   39       2
    42   38   40      am
    43   40   41       1
    44   41   42       1
    45   42   43       1
    46   43   44       2
    47   43   45      am
    48   45   46       1
    49   46   47       1
    50   47   48       1
    51    2   49       1
    52    7   50       1
    53    7   51       1
    54    9   52       1
    55   11   53       1
    56   12   54       1
    57   13   55       1
    58   14   56       1
    59   48   80       1
    60   47   79       1
    61   20   57       1
    62   22   58       1
    63   22   59       1
    64   47   78       1
    65   46   77       1
    66   33   60       1
    67   33   61       1
    68   34   62       1
    69   34   63       1
    70   34   64       1
    71   35   65       1
    72   35   66       1
    73   35   67       1
    74   36   68       1
    75   37   69       1
    76   40   70       1
    77   41   71       1
    78   41   72       1
    79   42   73       1
    80   42   74       1
    81   45   75       1
    82   46   76       1
@<TRIPOS>SUBSTRUCTURE
     1 COA500      1 GROUP             4 A     COA     0 **** COA A 500
