@<TRIPOS>MOLECULE
1q4j_GTX_1_ligand
   54    53     1     0     0
SMALL
NO_CHARGES


@<TRIPOS>ATOM
     1 N1          -0.5650     6.5750    -5.6570 N.4          1 GTX212   1.0000
     2 CA1          0.0580     7.8880    -5.5950 C.3          1 GTX212   0.0000
     3 C1           1.2680     7.9280    -6.4830 C.2          1 GTX212   0.0000
     4 O11          2.0210     6.8650    -6.5580 O.co2        1 GTX212   0.0000
     5 O12          1.5600     8.9920    -7.1940 O.co2        1 GTX212  -1.0000
     6 CB1          0.3640     8.2490    -4.1420 C.3          1 GTX212   0.0000
     7 CG1          0.8090     9.6990    -4.0290 C.3          1 GTX212   0.0000
     8 CD1          0.9940    10.1190    -2.5920 C.2          1 GTX212   0.0000
     9 OE1          0.7650     9.2420    -1.5560 O.2          1 GTX212   0.0000
    10 N2           1.4330    11.3710    -2.3920 N.am         1 GTX212   0.0000
    11 CA2          1.9750    11.8810    -1.1520 C.3          1 GTX212   0.0000
    12 C2           1.4990    13.2980    -1.0090 C.2          1 GTX212   0.0000
    13 O2           1.1900    14.0380    -2.1360 O.2          1 GTX212   0.0000
    14 CB2          3.5070    11.8560    -1.1160 C.3          1 GTX212   0.0000
    15 SG2          4.2480    10.2190    -1.4500 S.3          1 GTX212   0.0000
    16 C1S          3.6720     9.3650     0.0480 C.3          1 GTX212   0.0000
    17 C2S          4.1080     7.9030     0.0870 C.3          1 GTX212   0.0000
    18 C3S          5.5570     7.8010     0.4960 C.3          1 GTX212   0.0000
    19 C4S          6.2800     6.6520    -0.1890 C.3          1 GTX212   0.0000
    20 C5S          7.7880     6.8910    -0.2780 C.3          1 GTX212   0.0000
    21 C6S          8.5610     6.0120     0.6940 C.3          1 GTX212   0.0000
    22 N3           1.3800    13.7640     0.2190 N.am         1 GTX212   0.0000
    23 CA3          0.9380    15.1120     0.5200 C.3          1 GTX212   0.0000
    24 C3          -0.4250    15.1730     1.1410 C.2          1 GTX212   0.0000
    25 O31         -0.8270    16.3320     1.5360 O.co2        1 GTX212   0.0000
    26 O32         -1.2220    14.1290     1.3280 O.co2        1 GTX212  -1.0000
    27 H1          -1.3690     6.5591    -5.0626 H            1 GTX212   0.0000
    28 H2          -0.8423     6.3817    -6.5981 H            1 GTX212   0.0000
    29 HA1         -0.5998     8.5555    -5.9440 H            1 GTX212   0.0000
    30 HB11         1.0933     7.6547    -3.8030 H            1 GTX212   0.0000
    31 HB12        -0.4591     8.1146    -3.5903 H            1 GTX212   0.0000
    32 HG11         0.1159    10.2839    -4.4503 H            1 GTX212   0.0000
    33 HG12         1.6772     9.8096    -4.5127 H            1 GTX212   0.0000
    34 H8           1.3811    12.0040    -3.1644 H            1 GTX212   0.0000
    35 HA2          1.6203    11.3376    -0.3911 H            1 GTX212   0.0000
    36 HB21         3.8027    12.1531    -0.2081 H            1 GTX212   0.0000
    37 HB22         3.8459    12.4981    -1.8036 H            1 GTX212   0.0000
    38 H1S1         2.6731     9.4033     0.0757 H            1 GTX212   0.0000
    39 H1S2         4.0458     9.8332     0.8486 H            1 GTX212   0.0000
    40 H2S1         3.9919     7.4995    -0.8206 H            1 GTX212   0.0000
    41 H2S2         3.5431     7.4075     0.7468 H            1 GTX212   0.0000
    42 H3S1         5.6013     7.6625     1.4854 H            1 GTX212   0.0000
    43 H3S2         6.0176     8.6561     0.2582 H            1 GTX212   0.0000
    44 H4S1         5.9151     6.5475    -1.1142 H            1 GTX212   0.0000
    45 H4S2         6.1168     5.8132     0.3304 H            1 GTX212   0.0000
    46 H5S1         7.9762     7.8500    -0.0662 H            1 GTX212   0.0000
    47 H5S2         8.0928     6.6891    -1.2088 H            1 GTX212   0.0000
    48 H6S1         9.5396     6.1975     0.6053 H            1 GTX212   0.0000
    49 H6S2         8.2674     6.2108     1.6290 H            1 GTX212   0.0000
    50 H6S3         8.3840     5.0499     0.4865 H            1 GTX212   0.0000
    51 H25          1.6060    13.1572     0.9810 H            1 GTX212   0.0000
    52 HA31         0.9212    15.6365    -0.3312 H            1 GTX212   0.0000
    53 HA32         1.5925    15.5252     1.1532 H            1 GTX212   0.0000
    54 H28          0.0881     5.8815    -5.3529 H            1 GTX212   0.0000
@<TRIPOS>BOND
     1    1    2       1
     2    2    3       1
     3    2    6       1
     4    3    4      ar
     5    3    5      ar
     6    6    7       1
     7    7    8       1
     8    8    9       2
     9    8   10      am
    10   10   11       1
    11   11   12       1
    12   11   14       1
    13   12   13       2
    14   12   22      am
    15   14   15       1
    16   15   16       1
    17   16   17       1
    18   17   18       1
    19   18   19       1
    20   19   20       1
    21   20   21       1
    22   22   23       1
    23   23   24       1
    24   24   25      ar
    25   24   26      ar
    26    1   27       1
    27    1   28       1
    28    2   29       1
    29    1   54       1
    30    6   30       1
    31    6   31       1
    32    7   32       1
    33    7   33       1
    34   10   34       1
    35   11   35       1
    36   14   36       1
    37   14   37       1
    38   16   38       1
    39   16   39       1
    40   17   40       1
    41   17   41       1
    42   18   42       1
    43   18   43       1
    44   19   44       1
    45   19   45       1
    46   20   46       1
    47   20   47       1
    48   21   48       1
    49   21   49       1
    50   21   50       1
    51   22   51       1
    52   23   52       1
    53   23   53       1
@<TRIPOS>SUBSTRUCTURE
     1 GTX212      1 GROUP             4 A     GTX     0 **** GTX A 212
