@<TRIPOS>MOLECULE
2y5d_NAP_2_ligand
   73    77     1     0     0
SMALL
NO_CHARGES


@<TRIPOS>ATOM
     1 PA         -19.9310    -6.8750    -8.0600 P.3          1 NAP1533   0.0000
     2 O1A        -19.1440    -5.7460    -7.3850 O.co2        1 NAP1533   0.0000
     3 O2A        -20.5850    -7.7450    -7.0740 O.co2        1 NAP1533  -1.0000
     4 O5B        -18.9620    -7.7400    -9.0040 O.3          1 NAP1533   0.0000
     5 C5B        -17.6250    -7.5470    -9.3920 C.3          1 NAP1533   0.0000
     6 C4B        -16.9410    -8.9030    -9.2580 C.3          1 NAP1533   0.0000
     7 O4B        -17.0080    -9.4390    -7.9470 O.3          1 NAP1533   0.0000
     8 C3B        -17.5520    -9.9580   -10.1980 C.3          1 NAP1533   0.0000
     9 O3B        -16.5740   -10.8180   -10.6820 O.3          1 NAP1533   0.0000
    10 C2B        -18.4750   -10.6730    -9.2260 C.3          1 NAP1533   0.0000
    11 O2B        -18.7320   -11.9840    -9.7100 O.3          1 NAP1533   0.0000
    12 C1B        -17.5710   -10.7320    -8.0250 C.3          1 NAP1533   0.0000
    13 N9A        -18.1850   -11.0260    -6.7470 N.pl3        1 NAP1533   0.0000
    14 C8A        -19.3620   -10.5930    -6.3440 C.2          1 NAP1533   0.0000
    15 N7A        -19.5890   -11.0130    -5.1000 N.2          1 NAP1533   0.0000
    16 C5A        -18.5400   -11.6810    -4.6990 C.ar         1 NAP1533   0.0000
    17 C6A        -18.1760   -12.3090    -3.5430 C.ar         1 NAP1533   0.0000
    18 N6A        -19.0160   -12.3200    -2.5540 N.pl3        1 NAP1533   0.0000
    19 N1A        -17.0220   -12.9280    -3.4980 N.ar         1 NAP1533   0.0000
    20 C2A        -16.1880   -12.9020    -4.5180 C.ar         1 NAP1533   0.0000
    21 N3A        -16.5140   -12.2830    -5.5880 N.ar         1 NAP1533   0.0000
    22 C4A        -17.6650   -11.7070    -5.7320 C.ar         1 NAP1533   0.0000
    23 O3         -21.1770    -6.4910    -8.9080 O.3          1 NAP1533   0.0000
    24 PN         -21.2690    -5.4910   -10.1280 P.3          1 NAP1533   0.0000
    25 O1N        -21.9950    -4.1860    -9.5110 O.co2        1 NAP1533   0.0000
    26 O2N        -21.9430    -5.9460   -11.2870 O.co2        1 NAP1533  -1.0000
    27 O5D        -19.7620    -5.1980   -10.5000 O.3          1 NAP1533   0.0000
    28 C5D        -19.7360    -4.8430   -11.6690 C.3          1 NAP1533   0.0000
    29 C4D        -19.6370    -3.2690   -11.5710 C.3          1 NAP1533   0.0000
    30 O4D        -18.5130    -2.7020   -12.0670 O.3          1 NAP1533   0.0000
    31 C3D        -20.6100    -2.1630   -12.0380 C.3          1 NAP1533   0.0000
    32 O3D        -21.8410    -1.9300   -11.3190 O.3          1 NAP1533   0.0000
    33 C2D        -19.7940    -0.9360   -11.5800 C.3          1 NAP1533   0.0000
    34 O2D        -20.4640    -0.2220   -10.5210 O.3          1 NAP1533   0.0000
    35 C1D        -18.3700    -1.4970   -11.2010 C.3          1 NAP1533   0.0000
    36 N1N        -16.9240    -1.1150   -11.6930 N.ar         1 NAP1533   1.0000
    37 C2N        -15.7430    -0.4770   -11.0440 C.ar         1 NAP1533   0.0000
    38 C3N        -14.5330    -0.3970   -11.9150 C.ar         1 NAP1533   0.0000
    39 C7N        -13.1490     0.3170   -11.5460 C.2          1 NAP1533   0.0000
    40 O7N        -13.3680     0.9550   -10.5880 O.2          1 NAP1533   0.0000
    41 N7N        -11.9120     0.3480   -12.3910 N.am         1 NAP1533   0.0000
    42 C4N        -14.5440    -0.8830   -13.2200 C.ar         1 NAP1533   0.0000
    43 C5N        -15.6760    -1.4270   -13.6900 C.ar         1 NAP1533   0.0000
    44 C6N        -16.7390    -1.5640   -12.9920 C.ar         1 NAP1533   0.0000
    45 P2B        -20.1550   -12.3770   -10.5330 P.3          1 NAP1533   0.0000
    46 O1X        -20.2090   -11.5210   -11.8050 O.co2        1 NAP1533   0.0000
    47 O2X        -19.9840   -13.6850   -11.2470 O.co2        1 NAP1533  -1.0000
    48 O3X        -21.3290   -11.9970    -9.7310 O.co2        1 NAP1533  -1.0000
    49 H5B1       -17.1845    -6.8764    -8.7951 H            1 NAP1533   0.0000
    50 H5B2       -17.5817    -7.2294   -10.3392 H            1 NAP1533   0.0000
    51 H4B        -15.9772    -8.7910    -9.4999 H            1 NAP1533   0.0000
    52 H3B        -18.0649    -9.5311   -10.9428 H            1 NAP1533   0.0000
    53 H5         -15.8903   -10.2935   -11.1893 H            1 NAP1533   0.0000
    54 H2B        -19.3145   -10.1597    -9.0479 H            1 NAP1533   0.0000
    55 H1B        -16.8426   -11.3951    -8.1972 H            1 NAP1533   0.0000
    56 H8A        -19.9887   -10.0350    -6.8879 H            1 NAP1533   0.0000
    57 H6A1       -18.7729   -12.7735    -1.6965 H            1 NAP1533   0.0000
    58 H6A2       -19.9064   -11.8750    -2.6493 H            1 NAP1533   0.0000
    59 H2A        -15.3037   -13.3646    -4.4553 H            1 NAP1533   0.0000
    60 H5D1       -20.5701    -5.1202   -12.1459 H            1 NAP1533   0.0000
    61 H5D2       -18.9404    -5.2230   -12.1408 H            1 NAP1533   0.0000
    62 H4D        -19.5605    -3.1056   -10.5874 H            1 NAP1533   0.0000
    63 H3D        -20.7482    -2.1758   -13.0283 H            1 NAP1533   0.0000
    64 H16        -21.9047    -2.5680   -10.5516 H            1 NAP1533   0.0000
    65 H2D        -19.6911    -0.3182   -12.3595 H            1 NAP1533   0.0000
    66 H18        -21.3561     0.0936   -10.8442 H            1 NAP1533   0.0000
    67 H1D        -18.3484    -1.7639   -10.2375 H            1 NAP1533   0.0000
    68 H2N        -15.7599    -0.1321   -10.1055 H            1 NAP1533   0.0000
    69 H7N1       -11.0957     0.8250   -12.0652 H            1 NAP1533   0.0000
    70 H7N2       -11.9027    -0.1083   -13.2808 H            1 NAP1533   0.0000
    71 H4N        -13.7266    -0.8276   -13.7934 H            1 NAP1533   0.0000
    72 H5N        -15.6898    -1.7430   -14.6386 H            1 NAP1533   0.0000
    73 H6N        -17.5070    -2.0383   -13.4224 H            1 NAP1533   0.0000
@<TRIPOS>BOND
     1    1    2      ar
     2    1    3      ar
     3    1    4       1
     4    1   23       1
     5    4    5       1
     6    5    6       1
     7    6    7       1
     8    6    8       1
     9    7   12       1
    10    8    9       1
    11    8   10       1
    12   10   11       1
    13   10   12       1
    14   11   45       1
    15   12   13       1
    16   13   14       1
    17   13   22       1
    18   14   15       2
    19   15   16       1
    20   16   17      ar
    21   16   22      ar
    22   17   18       1
    23   17   19      ar
    24   19   20      ar
    25   20   21      ar
    26   21   22      ar
    27   23   24       1
    28   24   25      ar
    29   24   26      ar
    30   24   27       1
    31   27   28       1
    32   28   29       1
    33   29   30       1
    34   29   31       1
    35   30   35       1
    36   31   32       1
    37   31   33       1
    38   33   34       1
    39   33   35       1
    40   35   36       1
    41   36   37      ar
    42   36   44      ar
    43   37   38      ar
    44   38   39       1
    45   38   42      ar
    46   39   40       2
    47   39   41      am
    48   42   43      ar
    49   43   44      ar
    50   45   46      ar
    51   45   47      ar
    52   45   48      ar
    53   43   72       1
    54    5   49       1
    55    5   50       1
    56    6   51       1
    57    8   52       1
    58    9   53       1
    59   10   54       1
    60   12   55       1
    61   14   56       1
    62   18   57       1
    63   18   58       1
    64   20   59       1
    65   44   73       1
    66   28   60       1
    67   28   61       1
    68   29   62       1
    69   31   63       1
    70   32   64       1
    71   33   65       1
    72   34   66       1
    73   35   67       1
    74   37   68       1
    75   41   69       1
    76   41   70       1
    77   42   71       1
@<TRIPOS>SUBSTRUCTURE
     1 NAP1533     1 GROUP             4 B     NAP     0 **** NAP B1533
