@<TRIPOS>MOLECULE
3ojl_NAD_2_ligand
   70    74     1     0     0
SMALL
NO_CHARGES


@<TRIPOS>ATOM
     1 PA         -11.8510     5.6920    -6.6070 P.3          1 NAD500   0.0000
     2 O1A        -12.9770     4.7320    -6.5600 O.co2        1 NAD500   0.0000
     3 O2A        -10.5870     5.0170    -7.0010 O.co2        1 NAD500  -1.0000
     4 O5B        -11.6960     6.3540    -5.1470 O.3          1 NAD500   0.0000
     5 C5B        -12.7150     7.0740    -4.4960 C.3          1 NAD500   0.0000
     6 C4B        -12.4320     6.9160    -3.0090 C.3          1 NAD500   0.0000
     7 O4B        -13.2500     7.8010    -2.2770 O.3          1 NAD500   0.0000
     8 C3B        -12.7550     5.5040    -2.5100 C.3          1 NAD500   0.0000
     9 O3B        -11.6620     4.9620    -1.8000 O.3          1 NAD500   0.0000
    10 C2B        -13.9410     5.7010    -1.5820 C.3          1 NAD500   0.0000
    11 O2B        -13.9380     4.7660    -0.5220 O.3          1 NAD500   0.0000
    12 C1B        -13.7610     7.1430    -1.1410 C.3          1 NAD500   0.0000
    13 N9A        -15.0160     7.8140    -0.7880 N.pl3        1 NAD500   0.0000
    14 C8A        -16.1960     7.7980    -1.4970 C.2          1 NAD500   0.0000
    15 N7A        -17.0850     8.6010    -0.8630 N.2          1 NAD500   0.0000
    16 C5A        -16.4720     9.1670     0.2140 C.ar         1 NAD500   0.0000
    17 C6A        -16.9200    10.0630     1.1990 C.ar         1 NAD500   0.0000
    18 N6A        -18.1170    10.6550     1.0670 N.pl3        1 NAD500   0.0000
    19 N1A        -16.0390    10.4510     2.2140 N.ar         1 NAD500   0.0000
    20 C2A        -14.7400     9.9490     2.2330 C.ar         1 NAD500   0.0000
    21 N3A        -14.2920     9.0770     1.2390 N.ar         1 NAD500   0.0000
    22 C4A        -15.1490     8.6990     0.2490 C.ar         1 NAD500   0.0000
    23 O3         -12.2180     6.9570    -7.5780 O.3          1 NAD500   0.0000
    24 PN         -11.0890     7.8510    -8.3140 P.3          1 NAD500   0.0000
    25 O1N        -10.5100     7.0290    -9.3950 O.co2        1 NAD500   0.0000
    26 O2N        -10.2040     8.4670    -7.2940 O.co2        1 NAD500  -1.0000
    27 O5D        -11.9160     9.0210    -9.0400 O.3          1 NAD500   0.0000
    28 C5D        -12.6460     9.9890    -8.3120 C.3          1 NAD500   0.0000
    29 C4D        -13.2590    11.0340    -9.2540 C.3          1 NAD500   0.0000
    30 O4D        -12.2720    11.8760    -9.8390 O.3          1 NAD500   0.0000
    31 C3D        -13.9950    10.4570   -10.4620 C.3          1 NAD500   0.0000
    32 O3D        -15.2890     9.9490   -10.2120 O.3          1 NAD500   0.0000
    33 C2D        -14.0250    11.6670   -11.3760 C.3          1 NAD500   0.0000
    34 O2D        -14.9130    12.6250   -10.8480 O.3          1 NAD500   0.0000
    35 C1D        -12.6370    12.2360   -11.1740 C.3          1 NAD500   0.0000
    36 N1N        -11.7540    11.6400   -12.2140 N.ar         1 NAD500   1.0000
    37 C2N        -10.9780    10.5380   -11.9330 C.ar         1 NAD500   0.0000
    38 C3N        -10.1570     9.9700   -12.9110 C.ar         1 NAD500   0.0000
    39 C7N         -9.4460     8.6890   -12.6080 C.2          1 NAD500   0.0000
    40 O7N         -8.0420     8.7160   -12.4970 O.2          1 NAD500   0.0000
    41 N7N        -10.1660     7.5750   -12.4320 N.am         1 NAD500   0.0000
    42 C4N        -10.1160    10.5160   -14.1970 C.ar         1 NAD500   0.0000
    43 C5N        -10.9210    11.6210   -14.4910 C.ar         1 NAD500   0.0000
    44 C6N        -11.7490    12.1580   -13.4950 C.ar         1 NAD500   0.0000
    45 H5B1       -13.6119     6.6952    -4.7240 H            1 NAD500   0.0000
    46 H5B2       -12.6843     8.0386    -4.7578 H            1 NAD500   0.0000
    47 H4B        -11.4705     7.1226    -2.8280 H            1 NAD500   0.0000
    48 H3B        -13.0042     4.9107    -3.2754 H            1 NAD500   0.0000
    49 H5         -11.7452     5.1952    -0.8311 H            1 NAD500   0.0000
    50 H2B        -14.7906     5.6140    -2.1022 H            1 NAD500   0.0000
    51 H7         -13.4282     5.1413     0.2521 H            1 NAD500   0.0000
    52 H1B        -13.1105     7.1979    -0.3835 H            1 NAD500   0.0000
    53 H8A        -16.3678     7.2821    -2.3363 H            1 NAD500   0.0000
    54 H6A1       -18.4390    11.2933     1.7662 H            1 NAD500   0.0000
    55 H6A2       -18.6871    10.4579     0.2694 H            1 NAD500   0.0000
    56 H2A        -14.1190    10.2171     2.9695 H            1 NAD500   0.0000
    57 H5D1       -12.0319    10.4474    -7.6695 H            1 NAD500   0.0000
    58 H5D2       -13.3789     9.5342    -7.8060 H            1 NAD500   0.0000
    59 H4D        -13.8957    11.6015    -8.7320 H            1 NAD500   0.0000
    60 H3D        -13.4345     9.7418   -10.8794 H            1 NAD500   0.0000
    61 H17        -15.6795     9.5980   -11.0631 H            1 NAD500   0.0000
    62 H2D        -14.2193    11.4346   -12.3290 H            1 NAD500   0.0000
    63 H19        -15.8296    12.2303   -10.7838 H            1 NAD500   0.0000
    64 H1D        -12.6563    13.2313   -11.2686 H            1 NAD500   0.0000
    65 H2N        -11.0022    10.1385   -11.0166 H            1 NAD500   0.0000
    66 H7N1        -9.7072     6.7100   -12.2288 H            1 NAD500   0.0000
    67 H7N2       -11.1629     7.6074   -12.5037 H            1 NAD500   0.0000
    68 H4N         -9.5197    10.1222   -14.8966 H            1 NAD500   0.0000
    69 H5N        -10.9062    12.0255   -15.4054 H            1 NAD500   0.0000
    70 H6N        -12.3462    12.9292   -13.7155 H            1 NAD500   0.0000
@<TRIPOS>BOND
     1    1    2      ar
     2    1    3      ar
     3    1    4       1
     4    1   23       1
     5    4    5       1
     6    5    6       1
     7    6    7       1
     8    6    8       1
     9    7   12       1
    10    8    9       1
    11    8   10       1
    12   10   11       1
    13   10   12       1
    14   12   13       1
    15   13   14       1
    16   13   22       1
    17   14   15       2
    18   15   16       1
    19   16   17      ar
    20   16   22      ar
    21   17   18       1
    22   17   19      ar
    23   19   20      ar
    24   20   21      ar
    25   21   22      ar
    26   23   24       1
    27   24   25      ar
    28   24   26      ar
    29   24   27       1
    30   27   28       1
    31   28   29       1
    32   29   30       1
    33   29   31       1
    34   30   35       1
    35   31   32       1
    36   31   33       1
    37   33   34       1
    38   33   35       1
    39   35   36       1
    40   36   37      ar
    41   36   44      ar
    42   37   38      ar
    43   38   39       1
    44   38   42      ar
    45   39   40       2
    46   39   41      am
    47   42   43      ar
    48   43   44      ar
    49   44   70       1
    50    5   45       1
    51    5   46       1
    52    6   47       1
    53    8   48       1
    54    9   49       1
    55   10   50       1
    56   11   51       1
    57   12   52       1
    58   14   53       1
    59   18   54       1
    60   18   55       1
    61   20   56       1
    62   43   69       1
    63   28   57       1
    64   28   58       1
    65   29   59       1
    66   31   60       1
    67   32   61       1
    68   33   62       1
    69   34   63       1
    70   35   64       1
    71   37   65       1
    72   41   66       1
    73   41   67       1
    74   42   68       1
@<TRIPOS>SUBSTRUCTURE
     1 NAD500      1 GROUP             4 B     NAD     0 **** NAD B 500
