@<TRIPOS>MOLECULE
3kk6_CEL_1_ligand
   40    42     1     0     0
SMALL
NO_CHARGES


@<TRIPOS>ATOM
     1 S1         -32.3930    42.0950   -10.6380 S.o2         1 CEL701   0.0000
     2 C15        -32.2740    42.1500    -8.8570 C.ar         1 CEL701   0.0000
     3 C14        -33.2030    42.7870    -8.1280 C.ar         1 CEL701   0.0000
     4 C13        -33.0810    42.8110    -6.7440 C.ar         1 CEL701   0.0000
     5 C12        -32.0330    42.1170    -6.1140 C.ar         1 CEL701   0.0000
     6 C17        -31.1810    41.3350    -6.8490 C.ar         1 CEL701   0.0000
     7 C16        -31.2210    41.3910    -8.1900 C.ar         1 CEL701   0.0000
     8 N2         -31.9940    41.9580    -4.7100 N.pl3        1 CEL701   0.0000
     9 C3         -32.1180    42.8540    -3.7880 C.2          1 CEL701   0.0000
    10 C5         -32.3290    44.3210    -3.9500 C.ar         1 CEL701   0.0000
    11 C10        -33.3770    44.8620    -3.3430 C.ar         1 CEL701   0.0000
    12 C9         -33.6310    46.2140    -3.4510 C.ar         1 CEL701   0.0000
    13 C8         -32.7670    47.0200    -4.1940 C.ar         1 CEL701   0.0000
    14 C11        -33.0600    48.4890    -4.2850 C.3          1 CEL701   0.0000
    15 C7         -31.6680    46.4570    -4.8230 C.ar         1 CEL701   0.0000
    16 C6         -31.4260    45.1440    -4.7240 C.ar         1 CEL701   0.0000
    17 C2         -32.0280    42.1980    -2.5380 C.2          1 CEL701   0.0000
    18 C1         -31.8540    40.9250    -2.7710 C.2          1 CEL701   0.0000
    19 C4         -31.7000    39.8570    -1.7520 C.3          1 CEL701   0.0000
    20 F3         -32.5930    39.9530    -0.7850 F            1 CEL701   0.0000
    21 F2         -30.4870    39.9270    -1.2450 F            1 CEL701   0.0000
    22 F1         -31.8660    38.6780    -2.3110 F            1 CEL701   0.0000
    23 N1         -31.8210    40.7400    -4.1100 N.2          1 CEL701   0.0000
    24 N3         -33.9980    42.3520   -11.0370 N.3          1 CEL701   0.0000
    25 O2         -31.3540    43.1670   -11.2450 O.2          1 CEL701   0.0000
    26 O1         -32.0290    40.6090   -11.1630 O.2          1 CEL701   0.0000
    27 H1         -33.9744    43.2393    -8.5756 H            1 CEL701   0.0000
    28 H2         -33.7407    43.3235    -6.1943 H            1 CEL701   0.0000
    29 H3         -30.5337    40.7266    -6.3897 H            1 CEL701   0.0000
    30 H4         -30.5295    40.9128    -8.7314 H            1 CEL701   0.0000
    31 H5         -33.9887    44.2847    -2.8021 H            1 CEL701   0.0000
    32 H6         -34.4289    46.6137    -2.9999 H            1 CEL701   0.0000
    33 H7         -32.3614    48.9342    -4.8451 H            1 CEL701   0.0000
    34 H8         -33.9584    48.6245    -4.7028 H            1 CEL701   0.0000
    35 H9         -33.0555    48.8873    -3.3677 H            1 CEL701   0.0000
    36 H10        -31.0506    47.0363    -5.3552 H            1 CEL701   0.0000
    37 H11        -30.6329    44.7384    -5.1783 H            1 CEL701   0.0000
    38 H12        -32.0870    42.6309    -1.6385 H            1 CEL701   0.0000
    39 H13        -34.3472    41.5613   -11.5399 H            1 CEL701   0.0000
    40 H14        -34.5330    42.4786   -10.2017 H            1 CEL701   0.0000
@<TRIPOS>BOND
     1    1    2       1
     2    1   24       1
     3    1   25       2
     4    1   26       2
     5    2    3      ar
     6    2    7      ar
     7    3    4      ar
     8    4    5      ar
     9    5    6      ar
    10    5    8       1
    11    6    7      ar
    12    8    9       1
    13    8   23       1
    14    9   10       1
    15    9   17       2
    16   10   11      ar
    17   10   16      ar
    18   11   12      ar
    19   12   13      ar
    20   13   14       1
    21   13   15      ar
    22   15   16      ar
    23   17   18       1
    24   18   19       1
    25   18   23       2
    26   19   20       1
    27   19   21       1
    28   19   22       1
    29    3   27       1
    30    4   28       1
    31    6   29       1
    32    7   30       1
    33   11   31       1
    34   12   32       1
    35   14   33       1
    36   14   34       1
    37   14   35       1
    38   15   36       1
    39   16   37       1
    40   17   38       1
    41   24   39       1
    42   24   40       1
@<TRIPOS>SUBSTRUCTURE
     1 CEL701      1 GROUP             4 A     CEL     0 **** CEL A 701
