@<TRIPOS>MOLECULE
4a2a_ATP_2_ligand
   43    45     1     0     0
SMALL
NO_CHARGES


@<TRIPOS>ATOM
     1 PG           0.9180     0.0590    22.6180 P.3          1 ATP1391   0.0000
     2 O1G          1.4070     0.7210    23.8860 O.co2        1 ATP1391   0.0000
     3 O2G         -0.1060    -1.0130    22.8920 O.co2        1 ATP1391  -1.0000
     4 O3G          2.0150    -0.3790    21.6600 O.co2        1 ATP1391  -1.0000
     5 PB           0.4760     2.7860    21.7600 P.3          1 ATP1391   0.0000
     6 O1B          1.1840     3.1540    20.4810 O.co2        1 ATP1391   0.0000
     7 O2B          0.9830     3.2490    23.1060 O.co2        1 ATP1391  -1.0000
     8 O3B          0.0820     1.2040    21.8450 O.3          1 ATP1391   0.0000
     9 PA          -1.7140     4.3720    22.5720 P.3          1 ATP1391   0.0000
    10 O1A         -2.0720     3.5370    23.7840 O.co2        1 ATP1391   0.0000
    11 O2A         -0.9230     5.6540    22.7090 O.co2        1 ATP1391  -1.0000
    12 O3A         -0.9890     3.3890    21.5360 O.3          1 ATP1391   0.0000
    13 O5'         -3.0150     4.6250    21.6710 O.3          1 ATP1391   0.0000
    14 C5'         -3.8190     3.4960    21.3360 C.3          1 ATP1391   0.0000
    15 C4'         -4.8550     3.9650    20.3260 C.3          1 ATP1391   0.0000
    16 O4'         -5.7210     4.8860    20.9800 O.3          1 ATP1391   0.0000
    17 C3'         -4.2380     4.7000    19.1500 C.3          1 ATP1391   0.0000
    18 O3'         -4.3780     3.9450    17.9460 O.3          1 ATP1391   0.0000
    19 C2'         -5.1020     5.9190    18.9510 C.3          1 ATP1391   0.0000
    20 O2'         -5.7510     5.7410    17.6980 O.3          1 ATP1391   0.0000
    21 C1'         -6.1550     5.8660    20.0400 C.3          1 ATP1391   0.0000
    22 N9          -6.3090     7.2050    20.6580 N.pl3        1 ATP1391   0.0000
    23 C8          -5.3080     8.0430    20.9960 C.2          1 ATP1391   0.0000
    24 N7          -5.8020     9.1900    21.5250 N.2          1 ATP1391   0.0000
    25 C5          -7.1460     9.0930    21.5250 C.ar         1 ATP1391   0.0000
    26 C6          -8.2730     9.9560    21.9460 C.ar         1 ATP1391   0.0000
    27 N6          -8.0550    11.1850    22.4870 N.pl3        1 ATP1391   0.0000
    28 N1          -9.5220     9.4710    21.7730 N.ar         1 ATP1391   0.0000
    29 C2          -9.7540     8.2560    21.2320 C.ar         1 ATP1391   0.0000
    30 N3          -8.7810     7.4160    20.8310 N.ar         1 ATP1391   0.0000
    31 C4          -7.4770     7.7800    20.9490 C.ar         1 ATP1391   0.0000
    32 H5'1        -4.2733     3.1440    22.1544 H            1 ATP1391   0.0000
    33 H5'2        -3.2506     2.7775    20.9352 H            1 ATP1391   0.0000
    34 H4'         -5.3825     3.1823    19.9955 H            1 ATP1391   0.0000
    35 H3'         -3.2846     4.9457    19.3250 H            1 ATP1391   0.0000
    36 H5          -4.4375     4.5686    17.1665 H            1 ATP1391   0.0000
    37 H2'         -4.5708     6.7657    18.9824 H            1 ATP1391   0.0000
    38 H7          -5.1879     6.1356    16.9719 H            1 ATP1391   0.0000
    39 H1'         -7.0279     5.5815    19.6436 H            1 ATP1391   0.0000
    40 H9          -4.3353     7.8459    20.8735 H            1 ATP1391   0.0000
    41 H10         -8.8293    11.7533    22.7653 H            1 ATP1391   0.0000
    42 H11         -7.1204    11.5201    22.6064 H            1 ATP1391   0.0000
    43 H12        -10.7038     7.9628    21.1227 H            1 ATP1391   0.0000
@<TRIPOS>BOND
     1    1    2      ar
     2    1    3      ar
     3    1    4      ar
     4    1    8       1
     5    5    6      ar
     6    5    7      ar
     7    5    8       1
     8    5   12       1
     9    9   10      ar
    10    9   11      ar
    11    9   12       1
    12    9   13       1
    13   13   14       1
    14   14   15       1
    15   15   16       1
    16   15   17       1
    17   16   21       1
    18   17   18       1
    19   17   19       1
    20   19   20       1
    21   19   21       1
    22   21   22       1
    23   22   23       1
    24   22   31       1
    25   23   24       2
    26   24   25       1
    27   25   26      ar
    28   25   31      ar
    29   26   27       1
    30   26   28      ar
    31   28   29      ar
    32   29   30      ar
    33   30   31      ar
    34   29   43       1
    35   27   42       1
    36   27   41       1
    37   23   40       1
    38   14   32       1
    39   14   33       1
    40   15   34       1
    41   17   35       1
    42   18   36       1
    43   19   37       1
    44   20   38       1
    45   21   39       1
@<TRIPOS>SUBSTRUCTURE
     1 ATP1391     1 GROUP             4 B     ATP     0 **** ATP B1391
