@<TRIPOS>MOLECULE
3lcd_BDY_1_ligand
   67    71     1     0     0
SMALL
NO_CHARGES


@<TRIPOS>ATOM
     1 N1         -19.9480     4.8310   -17.4700 N.pl3        1 BDY923   0.0000
     2 N3         -20.1390     2.7060   -18.4450 N.ar         1 BDY923   0.0000
     3 C4         -20.9560     1.7200   -18.8190 C.ar         1 BDY923   0.0000
     4 C5         -22.3160     1.7730   -18.6510 C.ar         1 BDY923   0.0000
     5 C7         -22.1230     3.8530   -17.7240 C.ar         1 BDY923   0.0000
     6 C10        -24.6870     4.4610   -15.8140 C.ar         1 BDY923   0.0000
     7 C13        -26.3390     2.9640   -14.8590 C.ar         1 BDY923   0.0000
     8 C15        -24.7760     4.0420   -13.4470 C.ar         1 BDY923   0.0000
     9 C20        -25.1860    -0.5970   -18.7170 C.ar         1 BDY923   0.0000
    10 C21        -24.8410    -1.4230   -19.7630 C.ar         1 BDY923   0.0000
    11 C22        -23.6700    -1.1990   -20.4550 C.ar         1 BDY923   0.0000
    12 C24        -25.7730    -2.5160   -20.1080 C.2          1 BDY923   0.0000
    13 C28        -24.0240    -5.6960   -20.0830 C.3          1 BDY923   0.0000
    14 C2         -20.7490     3.7660   -17.8930 C.ar         1 BDY923   0.0000
    15 N6         -22.9140     2.8420   -18.1080 N.ar         1 BDY923   0.0000
    16 N8         -22.6480     5.0260   -17.1270 N.pl3        1 BDY923   0.0000
    17 C9         -24.1070     5.1310   -17.0360 C.3          1 BDY923   0.0000
    18 C11        -25.7620     3.5950   -15.9400 C.ar         1 BDY923   0.0000
    19 CL12       -26.4560     3.2720   -17.4780 Cl           1 BDY923   0.0000
    20 C14        -25.8400     3.1830   -13.5970 C.ar         1 BDY923   0.0000
    21 C16        -24.2100     4.6750   -14.5330 C.ar         1 BDY923   0.0000
    22 CL17       -22.8930     5.7390   -14.2040 Cl           1 BDY923   0.0000
    23 C18        -23.1750     0.6770   -19.0420 C.ar         1 BDY923   0.0000
    24 C19        -24.3560     0.4450   -18.3630 C.ar         1 BDY923   0.0000
    25 C23        -22.8420    -0.1570   -20.0910 C.ar         1 BDY923   0.0000
    26 O25        -26.9580    -2.2710   -19.9230 O.2          1 BDY923   0.0000
    27 N26        -25.2870    -3.7300   -20.6080 N.am         1 BDY923   0.0000
    28 C27        -23.9500    -4.2040   -20.3270 C.3          1 BDY923   0.0000
    29 C29        -25.4690    -6.0870   -20.2300 C.3          1 BDY923   0.0000
    30 C30        -26.2080    -4.8490   -20.6890 C.3          1 BDY923   0.0000
    31 C31        -26.7740    -5.1040   -22.0770 C.3          1 BDY923   0.0000
    32 N32        -27.2850    -3.8900   -22.7060 N.4          1 BDY923   1.0000
    33 C33        -27.2390    -4.1170   -24.1510 C.3          1 BDY923   0.0000
    34 C34        -28.5550    -3.6600   -24.7390 C.3          1 BDY923   0.0000
    35 C35        -29.4850    -3.4220   -23.5760 C.3          1 BDY923   0.0000
    36 C36        -28.6860    -3.7040   -22.3260 C.3          1 BDY923   0.0000
    37 H1         -20.3676     5.6378   -17.0540 H            1 BDY923   0.0000
    38 H2         -18.9555     4.7860   -17.5834 H            1 BDY923   0.0000
    39 H3         -20.5587     0.9052   -19.2411 H            1 BDY923   0.0000
    40 H4         -27.1169     2.3498   -14.9921 H            1 BDY923   0.0000
    41 H5         -24.4063     4.2104   -12.5332 H            1 BDY923   0.0000
    42 H6         -26.0368    -0.7526   -18.2152 H            1 BDY923   0.0000
    43 H7         -23.4206    -1.7917   -21.2208 H            1 BDY923   0.0000
    44 H8         -23.7009    -5.9109   -19.1614 H            1 BDY923   0.0000
    45 H9         -23.4652    -6.1831   -20.7542 H            1 BDY923   0.0000
    46 H10        -22.0497     5.7498   -16.7832 H            1 BDY923   0.0000
    47 H11        -24.3532     6.0999   -17.0119 H            1 BDY923   0.0000
    48 H12        -24.5057     4.7059   -17.8486 H            1 BDY923   0.0000
    49 H13        -26.2426     2.7268   -12.8034 H            1 BDY923   0.0000
    50 H14        -24.6124     1.0423   -17.6031 H            1 BDY923   0.0000
    51 H15        -21.9907    -0.0040   -20.5928 H            1 BDY923   0.0000
    52 H16        -23.3528    -4.0169   -21.1069 H            1 BDY923   0.0000
    53 H17        -23.5909    -3.7447   -19.5145 H            1 BDY923   0.0000
    54 H18        -25.8325    -6.4003   -19.3527 H            1 BDY923   0.0000
    55 H19        -25.5619    -6.8156   -20.9086 H            1 BDY923   0.0000
    56 H20        -26.9682    -4.6813   -20.0614 H            1 BDY923   0.0000
    57 H21        -27.5209    -5.7647   -22.0020 H            1 BDY923   0.0000
    58 H22        -26.0502    -5.4832   -22.6534 H            1 BDY923   0.0000
    59 H23        -27.1040    -5.0902   -24.3373 H            1 BDY923   0.0000
    60 H24        -26.4878    -3.5933   -24.5529 H            1 BDY923   0.0000
    61 H25        -28.9282    -4.3662   -25.3407 H            1 BDY923   0.0000
    62 H26        -28.4266    -2.8144   -25.2571 H            1 BDY923   0.0000
    63 H27        -30.2711    -4.0378   -23.6302 H            1 BDY923   0.0000
    64 H28        -29.8035    -2.4741   -23.5763 H            1 BDY923   0.0000
    65 H29        -28.7650    -2.9334   -21.6935 H            1 BDY923   0.0000
    66 H30        -29.0295    -4.5334   -21.8855 H            1 BDY923   0.0000
    67 H31        -26.7353    -3.0948   -22.4501 H            1 BDY923   0.0000
@<TRIPOS>BOND
     1    1   14       1
     2    2    3      ar
     3    2   14      ar
     4    3    4      ar
     5    4   15      ar
     6    4   23       1
     7    5   14      ar
     8    5   15      ar
     9    5   16       1
    10    6   17       1
    11    6   18      ar
    12    6   21      ar
    13    7   18      ar
    14    7   20      ar
    15    8   20      ar
    16    8   21      ar
    17    9   10      ar
    18    9   24      ar
    19   10   11      ar
    20   10   12       1
    21   11   25      ar
    22   12   26       2
    23   12   27      am
    24   13   28       1
    25   13   29       1
    26   16   17       1
    27   18   19       1
    28   21   22       1
    29   23   24      ar
    30   23   25      ar
    31   27   28       1
    32   27   30       1
    33   29   30       1
    34   30   31       1
    35   31   32       1
    36   32   33       1
    37   32   36       1
    38   33   34       1
    39   34   35       1
    40   35   36       1
    41    1   37       1
    42    1   38       1
    43    3   39       1
    44    7   40       1
    45    8   41       1
    46    9   42       1
    47   11   43       1
    48   13   44       1
    49   13   45       1
    50   16   46       1
    51   17   47       1
    52   17   48       1
    53   20   49       1
    54   24   50       1
    55   25   51       1
    56   28   52       1
    57   28   53       1
    58   29   54       1
    59   29   55       1
    60   30   56       1
    61   31   57       1
    62   31   58       1
    63   33   59       1
    64   33   60       1
    65   34   61       1
    66   34   62       1
    67   35   63       1
    68   35   64       1
    69   36   65       1
    70   36   66       1
    71   32   67       1
@<TRIPOS>SUBSTRUCTURE
     1 BDY923      1 GROUP             4 A     BDY     0 **** BDY A 923
