@<TRIPOS>MOLECULE
2ibw_COA_1_ligand
   80    82     1     0     0
SMALL
NO_CHARGES


@<TRIPOS>ATOM
     1 N1A        -44.1420    68.3220    70.9100 N.ar         1 COA6001   0.0000
     2 C2A        -43.8140    69.1800    71.9040 C.ar         1 COA6001   0.0000
     3 N3A        -42.6290    69.1650    72.5440 N.ar         1 COA6001   0.0000
     4 C4A        -41.6890    68.2580    72.2050 C.ar         1 COA6001   0.0000
     5 C5A        -41.9830    67.3080    71.1340 C.ar         1 COA6001   0.0000
     6 C6A        -43.2950    67.3630    70.4680 C.ar         1 COA6001   0.0000
     7 N6A        -43.5990    66.4920    69.4710 N.pl3        1 COA6001   0.0000
     8 N7A        -40.9430    66.5070    70.9430 N.2          1 COA6001   0.0000
     9 C8A        -40.0090    66.9030    71.8320 C.2          1 COA6001   0.0000
    10 N9A        -40.4530    67.9370    72.5840 N.pl3        1 COA6001   0.0000
    11 C1B        -39.7030    68.6510    73.6400 C.3          1 COA6001   0.0000
    12 C2B        -39.4530    67.8670    74.9120 C.3          1 COA6001   0.0000
    13 O2B        -40.5680    67.9500    75.8070 O.3          1 COA6001   0.0000
    14 C3B        -38.2410    68.5990    75.4500 C.3          1 COA6001   0.0000
    15 O3B        -38.6550    69.7570    76.1650 O.3          1 COA6001   0.0000
    16 P3B        -37.8190    70.2620    77.4410 P.3          1 COA6001   0.0000
    17 O7A        -38.5580    71.6670    78.0540 O.co2        1 COA6001   0.0000
    18 O8A        -36.2020    70.5550    77.0060 O.co2        1 COA6001  -1.0000
    19 O9A        -37.8820    69.1640    78.4830 O.co2        1 COA6001  -1.0000
    20 C4B        -37.4890    69.0860    74.2230 C.3          1 COA6001   0.0000
    21 O4B        -38.4160    69.0320    73.1430 O.3          1 COA6001   0.0000
    22 C5B        -36.2890    68.2070    73.9040 C.3          1 COA6001   0.0000
    23 O5B        -36.7290    66.9220    73.4730 O.3          1 COA6001   0.0000
    24 P1A        -35.7400    65.6580    73.6210 P.3          1 COA6001   0.0000
    25 O1A        -36.5540    64.3980    73.8200 O.co2        1 COA6001   0.0000
    26 O2A        -34.6310    65.9100    74.8900 O.co2        1 COA6001  -1.0000
    27 O3A        -35.0370    65.6120    72.1730 O.3          1 COA6001   0.0000
    28 P2A        -33.5350    66.1300    71.9190 P.3          1 COA6001   0.0000
    29 O4A        -33.3530    67.5840    72.3070 O.co2        1 COA6001   0.0000
    30 O5A        -32.4420    65.1660    72.7900 O.co2        1 COA6001  -1.0000
    31 O6A        -33.3710    65.9750    70.3180 O.3          1 COA6001   0.0000
    32 CBP        -33.1550    64.6590    68.2490 C.3          1 COA6001   0.0000
    33 CCP        -33.7530    64.7640    69.6540 C.3          1 COA6001   0.0000
    34 CDP        -33.8360    65.7000    67.3540 C.3          1 COA6001   0.0000
    35 CEP        -31.6530    64.9130    68.3690 C.3          1 COA6001   0.0000
    36 CAP        -33.3770    63.2360    67.6800 C.3          1 COA6001   0.0000
    37 OAP        -34.7680    62.8510    67.7380 O.3          1 COA6001   0.0000
    38 C9P        -32.8950    63.0930    66.2550 C.2          1 COA6001   0.0000
    39 O9P        -31.7070    63.0320    66.0020 O.2          1 COA6001   0.0000
    40 N8P        -33.8380    63.0340    65.3120 N.am         1 COA6001   0.0000
    41 C7P        -33.5190    62.9130    63.9040 C.3          1 COA6001   0.0000
    42 C6P        -33.5130    61.4600    63.4650 C.3          1 COA6001   0.0000
    43 C5P        -32.9220    61.4170    62.0780 C.2          1 COA6001   0.0000
    44 O5P        -32.1470    62.3010    61.7170 O.2          1 COA6001   0.0000
    45 N4P        -33.2740    60.3880    61.3070 N.am         1 COA6001   0.0000
    46 C3P        -32.7640    60.2280    59.9480 C.3          1 COA6001   0.0000
    47 C2P        -33.4190    61.1870    58.9660 C.3          1 COA6001   0.0000
    48 S1P        -32.3410    61.6510    57.5810 S.3          1 COA6001   0.0000
    49 H2A        -44.4898    69.8639    72.1789 H            1 COA6001   0.0000
    50 H6A1       -42.9311    65.8039    69.1873 H            1 COA6001   0.0000
    51 H6A2       -44.4907    66.5388    69.0208 H            1 COA6001   0.0000
    52 H8A        -39.1047    66.4861    71.9237 H            1 COA6001   0.0000
    53 H1B        -40.2071    69.4816    73.8766 H            1 COA6001   0.0000
    54 H2B        -39.2315    66.9139    74.7057 H            1 COA6001   0.0000
    55 H7         -41.3820    67.5782    75.3608 H            1 COA6001   0.0000
    56 H3B        -37.6726    68.0017    76.0159 H            1 COA6001   0.0000
    57 H4B        -37.1887    70.0295    74.3634 H            1 COA6001   0.0000
    58 H5B1       -35.7246    68.1065    74.7234 H            1 COA6001   0.0000
    59 H5B2       -35.7495    68.6334    73.1779 H            1 COA6001   0.0000
    60 HCP1       -34.7501    64.7373    69.5820 H            1 COA6001   0.0000
    61 HCP2       -33.4371    63.9860    70.1970 H            1 COA6001   0.0000
    62 HDP1       -33.4564    65.6450    66.4305 H            1 COA6001   0.0000
    63 HDP2       -34.8191    65.5197    67.3216 H            1 COA6001   0.0000
    64 HDP3       -33.6769    66.6145    67.7259 H            1 COA6001   0.0000
    65 HEP1       -31.2312    64.8512    67.4644 H            1 COA6001   0.0000
    66 HEP2       -31.4985    65.8257    68.7472 H            1 COA6001   0.0000
    67 HEP3       -31.2464    64.2283    68.9739 H            1 COA6001   0.0000
    68 HAP        -32.8576    62.5952    68.2453 H            1 COA6001   0.0000
    69 H21        -35.3429    63.6653    67.6578 H            1 COA6001   0.0000
    70 H8P        -34.7985    63.0748    65.5872 H            1 COA6001   0.0000
    71 H7P1       -32.6148    63.3071    63.7394 H            1 COA6001   0.0000
    72 H7P2       -34.2022    63.4120    63.3708 H            1 COA6001   0.0000
    73 H6P1       -34.4467    61.1022    63.4510 H            1 COA6001   0.0000
    74 H6P2       -32.9564    60.9148    64.0919 H            1 COA6001   0.0000
    75 H4P        -33.9069    59.7045    61.6706 H            1 COA6001   0.0000
    76 H3P1       -32.9400    59.2907    59.6473 H            1 COA6001   0.0000
    77 H3P2       -31.7784    60.3970    59.9529 H            1 COA6001   0.0000
    78 H2P1       -33.6768    62.0180    59.4589 H            1 COA6001   0.0000
    79 H2P2       -34.2394    60.7506    58.5965 H            1 COA6001   0.0000
    80 H1P        -32.8286    62.2797    56.9752 H            1 COA6001   0.0000
@<TRIPOS>BOND
     1    1    2      ar
     2    1    6      ar
     3    2    3      ar
     4    3    4      ar
     5    4    5      ar
     6    4   10       1
     7    5    6      ar
     8    5    8       1
     9    6    7       1
    10    8    9       2
    11    9   10       1
    12   10   11       1
    13   11   12       1
    14   11   21       1
    15   12   13       1
    16   12   14       1
    17   14   15       1
    18   14   20       1
    19   15   16       1
    20   16   17      ar
    21   16   18      ar
    22   16   19      ar
    23   20   21       1
    24   20   22       1
    25   22   23       1
    26   23   24       1
    27   24   25      ar
    28   24   26      ar
    29   24   27       1
    30   27   28       1
    31   28   29      ar
    32   28   30      ar
    33   28   31       1
    34   31   33       1
    35   32   33       1
    36   32   34       1
    37   32   35       1
    38   32   36       1
    39   36   37       1
    40   36   38       1
    41   38   39       2
    42   38   40      am
    43   40   41       1
    44   41   42       1
    45   42   43       1
    46   43   44       2
    47   43   45      am
    48   45   46       1
    49   46   47       1
    50   47   48       1
    51    2   49       1
    52    7   50       1
    53    7   51       1
    54    9   52       1
    55   11   53       1
    56   12   54       1
    57   13   55       1
    58   14   56       1
    59   48   80       1
    60   47   79       1
    61   20   57       1
    62   22   58       1
    63   22   59       1
    64   47   78       1
    65   46   77       1
    66   33   60       1
    67   33   61       1
    68   34   62       1
    69   34   63       1
    70   34   64       1
    71   35   65       1
    72   35   66       1
    73   35   67       1
    74   36   68       1
    75   37   69       1
    76   40   70       1
    77   41   71       1
    78   41   72       1
    79   42   73       1
    80   42   74       1
    81   45   75       1
    82   46   76       1
@<TRIPOS>SUBSTRUCTURE
     1 COA6001     1 GROUP             4 A     COA     0 **** COA A6001
