@<TRIPOS>MOLECULE
1y60_H4M_3_ligand
   82    86     1     0     0
SMALL
NO_CHARGES


@<TRIPOS>ATOM
     1 N1          14.3800    53.7720    36.4710 N.2          1 H4M995   0.0000
     2 C2          13.4960    52.9520    35.5960 C.2          1 H4M995   0.0000
     3 NA2         12.2210    53.2350    35.4400 N.pl3        1 H4M995   0.0000
     4 N3          14.1000    51.8510    34.9330 N.pl3        1 H4M995   0.0000
     5 C4          15.4620    51.4460    35.0180 C.2          1 H4M995   0.0000
     6 OH4         15.8890    50.4390    34.3710 O.2          1 H4M995   0.0000
     7 C4A         16.3400    52.2280    35.8630 C.2          1 H4M995   0.0000
     8 N5          17.8390    51.9370    36.0710 N.pl3        1 H4M995   0.0000
     9 C6          18.7390    52.8440    36.9760 C.3          1 H4M995   0.0000
    10 C7          17.9520    53.6610    38.0670 C.3          1 H4M995   0.0000
    11 C7M         17.6310    52.7730    39.3190 C.3          1 H4M995   0.0000
    12 N8          16.6450    54.2060    37.4460 N.pl3        1 H4M995   0.0000
    13 C8A         15.7680    53.4150    36.5970 C.2          1 H4M995   0.0000
    14 C9          19.5030    53.8190    35.9310 C.3          1 H4M995   0.0000
    15 C9M         21.0090    53.6950    36.0570 C.3          1 H4M995   0.0000
    16 C10         18.7650    51.8950    34.8950 C.3          1 H4M995   0.0000
    17 N10         18.9050    53.3290    34.6580 N.pl3        1 H4M995   0.0000
    18 C11         20.5920    54.4730    30.7910 C.ar         1 H4M995   0.0000
    19 C12         20.4260    53.0640    31.0890 C.ar         1 H4M995   0.0000
    20 C13         19.8850    52.6610    32.3690 C.ar         1 H4M995   0.0000
    21 C14         19.5060    53.6800    33.3540 C.ar         1 H4M995   0.0000
    22 C15         19.6890    55.0810    33.0280 C.ar         1 H4M995   0.0000
    23 C16         20.2280    55.4660    31.7620 C.ar         1 H4M995   0.0000
    24 CX1         21.1400    54.9380    29.4510 C.3          1 H4M995   0.0000
    25 CX2         22.4270    54.2280    29.0970 C.3          1 H4M995   0.0000
    26 CX3         22.5800    54.1030    27.5500 C.3          1 H4M995   0.0000
    27 CX4         22.8710    55.3990    26.7350 C.3          1 H4M995   0.0000
    28 CX5         24.1600    56.0910    27.1820 C.3          1 H4M995   0.0000
    29 OX2         23.4950    54.9370    29.7070 O.3          1 H4M995   0.0000
    30 OX3         23.5650    53.1320    27.2900 O.3          1 H4M995   0.0000
    31 OX4         21.7620    56.2920    26.7680 O.3          1 H4M995   0.0000
    32 OX5         25.2620    55.2720    26.8070 O.3          1 H4M995   0.0000
    33 O5J         29.4390    54.3760    30.5760 O.3          1 H4M995   0.0000
    34 C5J         28.1980    55.0500    30.3850 C.3          1 H4M995   0.0000
    35 C4J         27.4940    54.5190    29.1850 C.3          1 H4M995   0.0000
    36 O4J         26.2940    55.2290    28.8930 O.3          1 H4M995   0.0000
    37 C3J         28.4350    54.5920    27.9840 C.3          1 H4M995   0.0000
    38 O3J         28.7410    53.2840    27.5310 O.3          1 H4M995   0.0000
    39 C2J         27.6940    55.4140    26.9360 C.3          1 H4M995   0.0000
    40 O2J         27.5080    54.6620    25.7480 O.3          1 H4M995   0.0000
    41 C1J         26.3440    55.7860    27.5720 C.3          1 H4M995   0.0000
    42 PA          30.7430    55.2120    30.8780 P.3          1 H4M995   0.0000
    43 O1A         31.9150    54.2690    30.9030 O.co2        1 H4M995   0.0000
    44 O2A         30.9620    56.2760    29.7900 O.co2        1 H4M995  -1.0000
    45 O3A         30.6200    55.9350    32.2670 O.co2        1 H4M995  -1.0000
    46 HA21        11.6517    52.6666    34.8460 H            1 H4M995   0.0000
    47 HA22        11.8210    54.0186    35.9153 H            1 H4M995   0.0000
    48 H3          19.4174    52.2688    37.4331 H            1 H4M995   0.0000
    49 H4          18.5158    54.4340    38.3578 H            1 H4M995   0.0000
    50 H7M1        17.1320    53.3164    39.9940 H            1 H4M995   0.0000
    51 H7M2        17.0714    51.9928    39.0396 H            1 H4M995   0.0000
    52 H7M3        18.4849    52.4435    39.7218 H            1 H4M995   0.0000
    53 H8          16.3889    55.1533    37.6384 H            1 H4M995   0.0000
    54 H9          19.2277    54.7670    36.0905 H            1 H4M995   0.0000
    55 H9M1        21.4499    54.3074    35.4008 H            1 H4M995   0.0000
    56 H9M2        21.2875    53.9440    36.9846 H            1 H4M995   0.0000
    57 H9M3        21.2827    52.7518    35.8687 H            1 H4M995   0.0000
    58 H13         18.3560    51.4245    34.1131 H            1 H4M995   0.0000
    59 H14         19.6393    51.4660    35.1221 H            1 H4M995   0.0000
    60 H15         20.6842    52.3738    30.4130 H            1 H4M995   0.0000
    61 H16         19.7698    51.6907    32.5816 H            1 H4M995   0.0000
    62 H17         19.4362    55.7828    33.6940 H            1 H4M995   0.0000
    63 H18         20.3528    56.4354    31.5504 H            1 H4M995   0.0000
    64 HX11        21.3142    55.9217    29.4957 H            1 H4M995   0.0000
    65 HX12        20.4611    54.7517    28.7408 H            1 H4M995   0.0000
    66 HX2         22.3966    53.3074    29.4863 H            1 H4M995   0.0000
    67 HX3         21.7164    53.7351    27.2051 H            1 H4M995   0.0000
    68 HX4         22.9996    55.1246    25.7820 H            1 H4M995   0.0000
    69 HX51        24.1516    56.2124    28.1746 H            1 H4M995   0.0000
    70 HX52        24.2358    56.9836    26.7377 H            1 H4M995   0.0000
    71 H26         24.3208    54.8384    29.1517 H            1 H4M995   0.0000
    72 H27         24.4617    53.5719    27.2399 H            1 H4M995   0.0000
    73 H28         20.9146    55.7681    26.8546 H            1 H4M995   0.0000
    74 H5J1        28.3703    56.0270    30.2597 H            1 H4M995   0.0000
    75 H5J2        27.6223    54.9137    31.1912 H            1 H4M995   0.0000
    76 H4J         27.2636    53.5600    29.3503 H            1 H4M995   0.0000
    77 H3J         29.2777    55.0625    28.2457 H            1 H4M995   0.0000
    78 H33         28.4418    53.1813    26.5823 H            1 H4M995   0.0000
    79 H2J         28.2111    56.2452    26.7317 H            1 H4M995   0.0000
    80 H35         26.5300    54.5748    25.5584 H            1 H4M995   0.0000
    81 H1J         26.2670    56.7814    27.6285 H            1 H4M995   0.0000
    82 H37         13.5060    51.3025    34.3445 H            1 H4M995   0.0000
@<TRIPOS>BOND
     1    1    2       2
     2    1   13       1
     3    2    3       1
     4    2    4       1
     5    4    5       1
     6    5    6       2
     7    5    7       1
     8    7    8       1
     9    7   13       2
    10    8    9       1
    11    8   16       1
    12    9   10       1
    13    9   14       1
    14   10   11       1
    15   10   12       1
    16   12   13       1
    17   14   15       1
    18   14   17       1
    19   16   17       1
    20   17   21       1
    21   18   19      ar
    22   18   23      ar
    23   18   24       1
    24   19   20      ar
    25   20   21      ar
    26   21   22      ar
    27   22   23      ar
    28   24   25       1
    29   25   26       1
    30   25   29       1
    31   26   27       1
    32   26   30       1
    33   27   28       1
    34   27   31       1
    35   28   32       1
    36   32   41       1
    37   33   34       1
    38   33   42       1
    39   34   35       1
    40   35   36       1
    41   35   37       1
    42   36   41       1
    43   37   38       1
    44   37   39       1
    45   39   40       1
    46   39   41       1
    47   42   43      ar
    48   42   44      ar
    49   42   45      ar
    50    4   82       1
    51    3   46       1
    52    3   47       1
    53    9   48       1
    54   10   49       1
    55   11   50       1
    56   11   51       1
    57   11   52       1
    58   12   53       1
    59   14   54       1
    60   15   55       1
    61   15   56       1
    62   15   57       1
    63   16   58       1
    64   16   59       1
    65   19   60       1
    66   20   61       1
    67   22   62       1
    68   23   63       1
    69   24   64       1
    70   24   65       1
    71   25   66       1
    72   26   67       1
    73   27   68       1
    74   28   69       1
    75   28   70       1
    76   29   71       1
    77   30   72       1
    78   31   73       1
    79   34   74       1
    80   34   75       1
    81   35   76       1
    82   37   77       1
    83   38   78       1
    84   39   79       1
    85   40   80       1
    86   41   81       1
@<TRIPOS>SUBSTRUCTURE
     1 H4M995      1 GROUP             4 C     H4M     0 **** H4M C 995
