@<TRIPOS>MOLECULE
4eag_ATP_2_ligand
   43    45     1     0     0
SMALL
NO_CHARGES


@<TRIPOS>ATOM
     1 PG         -21.4330   -37.4400    14.7130 P.3          1 ATP402   0.0000
     2 O1G        -20.2280   -36.9920    13.9160 O.co2        1 ATP402   0.0000
     3 O2G        -21.1060   -37.7970    16.1320 O.co2        1 ATP402  -1.0000
     4 O3G        -22.6740   -36.5940    14.5190 O.co2        1 ATP402  -1.0000
     5 PB         -20.8810   -40.1390    14.4510 P.3          1 ATP402   0.0000
     6 O1B        -21.7200   -41.2010    15.0890 O.co2        1 ATP402   0.0000
     7 O2B        -19.6490   -39.6750    15.1800 O.co2        1 ATP402  -1.0000
     8 O3B        -21.8220   -38.8800    14.1180 O.3          1 ATP402   0.0000
     9 PA         -19.1420   -40.2790    12.1810 P.3          1 ATP402   0.0000
    10 O1A        -18.3050   -39.2150    12.8300 O.co2        1 ATP402   0.0000
    11 O2A        -19.5180   -40.0600    10.7220 O.co2        1 ATP402  -1.0000
    12 O3A        -20.5180   -40.6120    12.9580 O.3          1 ATP402   0.0000
    13 O5'        -18.5120   -41.7300    12.4720 O.3          1 ATP402   0.0000
    14 C5'        -19.2830   -42.8770    12.0890 C.3          1 ATP402   0.0000
    15 C4'        -18.4890   -44.1250    12.3980 C.3          1 ATP402   0.0000
    16 O4'        -17.3870   -44.1880    11.5000 O.3          1 ATP402   0.0000
    17 C3'        -17.9160   -44.0110    13.7960 C.3          1 ATP402   0.0000
    18 O3'        -18.0110   -45.2970    14.4060 O.3          1 ATP402   0.0000
    19 C2'        -16.4600   -43.6110    13.6170 C.3          1 ATP402   0.0000
    20 O2'        -15.6110   -44.2670    14.5690 O.3          1 ATP402   0.0000
    21 C1'        -16.1350   -44.0180    12.1860 C.3          1 ATP402   0.0000
    22 N9         -15.3770   -42.9800    11.4450 N.pl3        1 ATP402   0.0000
    23 C8         -15.5010   -41.6400    11.5680 C.2          1 ATP402   0.0000
    24 N7         -14.6660   -40.9860    10.7140 N.2          1 ATP402   0.0000
    25 C5         -13.9860   -41.9260    10.0090 C.ar         1 ATP402   0.0000
    26 C6         -12.9550   -41.9340     8.9280 C.ar         1 ATP402   0.0000
    27 N6         -12.4240   -40.7990     8.3720 N.pl3        1 ATP402   0.0000
    28 N1         -12.5480   -43.1510     8.5060 N.ar         1 ATP402   0.0000
    29 C2         -13.0350   -44.3000     9.0070 C.ar         1 ATP402   0.0000
    30 N3         -13.9720   -44.3680     9.9660 N.ar         1 ATP402   0.0000
    31 C4         -14.4710   -43.2330    10.5000 C.ar         1 ATP402   0.0000
    32 H5'1       -19.4792   -42.8378    11.1092 H            1 ATP402   0.0000
    33 H5'2       -20.1421   -42.8903    12.6007 H            1 ATP402   0.0000
    34 H4'        -19.0621   -44.9402    12.3145 H            1 ATP402   0.0000
    35 H3'        -18.4112   -43.3255    14.3297 H            1 ATP402   0.0000
    36 H5         -18.1193   -45.1899    15.3943 H            1 ATP402   0.0000
    37 H2'        -16.3696   -42.6197    13.7132 H            1 ATP402   0.0000
    38 H7         -15.8948   -44.0189    15.4952 H            1 ATP402   0.0000
    39 H1'        -15.6257   -44.8786    12.1838 H            1 ATP402   0.0000
    40 H9         -16.1255   -41.1870    12.2042 H            1 ATP402   0.0000
    41 H10        -11.7356   -40.8707     7.6502 H            1 ATP402   0.0000
    42 H11        -12.7250   -39.8993     8.6882 H            1 ATP402   0.0000
    43 H12        -12.6761   -45.1590     8.6417 H            1 ATP402   0.0000
@<TRIPOS>BOND
     1    1    2      ar
     2    1    3      ar
     3    1    4      ar
     4    1    8       1
     5    5    6      ar
     6    5    7      ar
     7    5    8       1
     8    5   12       1
     9    9   10      ar
    10    9   11      ar
    11    9   12       1
    12    9   13       1
    13   13   14       1
    14   14   15       1
    15   15   16       1
    16   15   17       1
    17   16   21       1
    18   17   18       1
    19   17   19       1
    20   19   20       1
    21   19   21       1
    22   21   22       1
    23   22   23       1
    24   22   31       1
    25   23   24       2
    26   24   25       1
    27   25   26      ar
    28   25   31      ar
    29   26   27       1
    30   26   28      ar
    31   28   29      ar
    32   29   30      ar
    33   30   31      ar
    34   29   43       1
    35   27   42       1
    36   27   41       1
    37   23   40       1
    38   14   32       1
    39   14   33       1
    40   15   34       1
    41   17   35       1
    42   18   36       1
    43   19   37       1
    44   20   38       1
    45   21   39       1
@<TRIPOS>SUBSTRUCTURE
     1 ATP402      1 GROUP             4 C     ATP     0 **** ATP C 402
