@<TRIPOS>MOLECULE
3u4c_NDP_1_ligand
   73    77     1     0     0
SMALL
NO_CHARGES


@<TRIPOS>ATOM
     1 PA         -21.8580    17.5830    18.1460 P.3          1 NDP262   0.0000
     2 O1A        -20.8720    18.3510    17.3080 O.co2        1 NDP262   0.0000
     3 O2A        -21.1430    16.5920    19.0370 O.co2        1 NDP262  -1.0000
     4 O5B        -22.6960    18.5600    19.0740 O.3          1 NDP262   0.0000
     5 C5B        -23.8980    18.1310    19.6800 C.3          1 NDP262   0.0000
     6 C4B        -24.6070    19.2760    20.3570 C.3          1 NDP262   0.0000
     7 O4B        -25.7000    18.8100    21.1050 O.3          1 NDP262   0.0000
     8 C3B        -23.7300    19.9980    21.2870 C.3          1 NDP262   0.0000
     9 O3B        -24.0420    21.3360    21.1740 O.3          1 NDP262   0.0000
    10 C2B        -24.1000    19.5190    22.6310 C.3          1 NDP262   0.0000
    11 O2B        -23.9390    20.5600    23.5090 O.3          1 NDP262   0.0000
    12 C1B        -25.5170    19.1510    22.4340 C.3          1 NDP262   0.0000
    13 N9A        -25.9550    18.0160    23.2220 N.pl3        1 NDP262   0.0000
    14 C8A        -25.3010    16.8410    23.4250 C.2          1 NDP262   0.0000
    15 N7A        -26.0910    16.0550    24.2160 N.2          1 NDP262   0.0000
    16 C5A        -27.2250    16.7510    24.4880 C.ar         1 NDP262   0.0000
    17 C6A        -28.3350    16.4400    25.2340 C.ar         1 NDP262   0.0000
    18 N6A        -28.3990    15.1560    25.8800 N.pl3        1 NDP262   0.0000
    19 N1A        -29.3390    17.3300    25.3510 N.ar         1 NDP262   0.0000
    20 C2A        -29.2630    18.5470    24.7330 C.ar         1 NDP262   0.0000
    21 N3A        -28.1540    18.8640    23.9860 N.ar         1 NDP262   0.0000
    22 C4A        -27.1480    17.9650    23.8720 C.ar         1 NDP262   0.0000
    23 O3         -22.9340    16.7830    17.2840 O.3          1 NDP262   0.0000
    24 PN         -22.9340    16.7800    15.6920 P.3          1 NDP262   0.0000
    25 O1N        -21.6680    16.2240    15.0870 O.co2        1 NDP262   0.0000
    26 O2N        -23.1590    18.1960    15.2000 O.co2        1 NDP262  -1.0000
    27 O5D        -24.1810    15.8740    15.2790 O.3          1 NDP262   0.0000
    28 C5D        -25.5190    16.2580    15.5240 C.3          1 NDP262   0.0000
    29 C4D        -26.4040    15.1150    15.0920 C.3          1 NDP262   0.0000
    30 O4D        -26.0370    14.6560    13.8180 O.3          1 NDP262   0.0000
    31 C3D        -26.2450    14.0020    16.0410 C.3          1 NDP262   0.0000
    32 O3D        -27.4690    13.4640    16.3300 O.3          1 NDP262   0.0000
    33 C2D        -25.4230    13.0210    15.3100 C.3          1 NDP262   0.0000
    34 O2D        -25.7590    11.7510    15.7100 O.3          1 NDP262   0.0000
    35 C1D        -25.7840    13.2850    13.9030 C.3          1 NDP262   0.0000
    36 N1N        -24.7490    12.8590    12.9730 N.ar         1 NDP262   1.0000
    37 C2N        -23.6040    13.6120    12.7550 C.ar         1 NDP262   0.0000
    38 C3N        -22.6220    13.1640    11.8580 C.ar         1 NDP262   0.0000
    39 C7N        -21.3560    13.9650    11.5960 C.2          1 NDP262   0.0000
    40 O7N        -20.5115    13.3592    10.7268 O.2          1 NDP262   0.0000
    41 N7N        -21.3701    15.1201    12.3024 N.am         1 NDP262   0.0000
    42 C4N        -22.8040    11.9690    11.1890 C.ar         1 NDP262   0.0000
    43 C5N        -23.9410    11.2180    11.3970 C.ar         1 NDP262   0.0000
    44 C6N        -24.9140    11.6720    12.2980 C.ar         1 NDP262   0.0000
    45 P2B        -23.8340    20.4010    25.0620 P.3          1 NDP262   0.0000
    46 O1X        -25.1400    19.8470    25.5460 O.co2        1 NDP262   0.0000
    47 O2X        -22.7740    19.3750    25.3840 O.co2        1 NDP262  -1.0000
    48 O3X        -23.5150    21.7590    25.6590 O.co2        1 NDP262  -1.0000
    49 H5B1       -23.6876    17.4295    20.3609 H            1 NDP262   0.0000
    50 H5B2       -24.4973    17.7455    18.9784 H            1 NDP262   0.0000
    51 H4B        -24.9371    19.9125    19.6599 H            1 NDP262   0.0000
    52 H3B        -22.7647    19.8277    21.0890 H            1 NDP262   0.0000
    53 H5         -25.0031    21.4755    21.4126 H            1 NDP262   0.0000
    54 H2B        -23.5516    18.7272    22.8997 H            1 NDP262   0.0000
    55 H1B        -26.0921    19.9399    22.6506 H            1 NDP262   0.0000
    56 H8A        -24.4026    16.5960    23.0606 H            1 NDP262   0.0000
    57 H6A1       -29.1991    14.9111    26.4276 H            1 NDP262   0.0000
    58 H6A2       -27.6434    14.5085    25.7814 H            1 NDP262   0.0000
    59 H2A        -30.0114    19.2039    24.8242 H            1 NDP262   0.0000
    60 H5D1       -25.7405    17.0792    14.9981 H            1 NDP262   0.0000
    61 H5D2       -25.6489    16.4412    16.4985 H            1 NDP262   0.0000
    62 H4D        -27.3582    15.4138    15.0803 H            1 NDP262   0.0000
    63 H3D        -25.7825    14.3058    16.8739 H            1 NDP262   0.0000
    64 H16        -27.8613    13.9338    17.1209 H            1 NDP262   0.0000
    65 H2D        -24.4498    13.1929    15.4626 H            1 NDP262   0.0000
    66 H18        -25.1877    11.4838    16.4860 H            1 NDP262   0.0000
    67 H1D        -26.6271    12.7907    13.6912 H            1 NDP262   0.0000
    68 H2N        -23.4780    14.4778    13.2393 H            1 NDP262   0.0000
    69 H7N1       -20.6056    15.7604    12.2289 H            1 NDP262   0.0000
    70 H7N2       -22.1450    15.3327    12.8976 H            1 NDP262   0.0000
    71 H4N        -22.1061    11.6466    10.5495 H            1 NDP262   0.0000
    72 H5N        -24.0708    10.3552    10.9084 H            1 NDP262   0.0000
    73 H6N        -25.7378    11.1265    12.4519 H            1 NDP262   0.0000
@<TRIPOS>BOND
     1    1    2      ar
     2    1    3      ar
     3    1    4       1
     4    1   23       1
     5    4    5       1
     6    5    6       1
     7    6    7       1
     8    6    8       1
     9    7   12       1
    10    8    9       1
    11    8   10       1
    12   10   11       1
    13   10   12       1
    14   11   45       1
    15   12   13       1
    16   13   14       1
    17   13   22       1
    18   14   15       2
    19   15   16       1
    20   16   17      ar
    21   16   22      ar
    22   17   18       1
    23   17   19      ar
    24   19   20      ar
    25   20   21      ar
    26   21   22      ar
    27   23   24       1
    28   24   25      ar
    29   24   26      ar
    30   24   27       1
    31   27   28       1
    32   28   29       1
    33   29   30       1
    34   29   31       1
    35   30   35       1
    36   31   32       1
    37   31   33       1
    38   33   34       1
    39   33   35       1
    40   35   36       1
    41   36   37      ar
    42   36   44      ar
    43   37   38      ar
    44   38   39       1
    45   38   42      ar
    46   39   40       2
    47   39   41      am
    48   42   43      ar
    49   43   44      ar
    50   45   46      ar
    51   45   47      ar
    52   45   48      ar
    53   43   72       1
    54    5   49       1
    55    5   50       1
    56    6   51       1
    57    8   52       1
    58    9   53       1
    59   10   54       1
    60   12   55       1
    61   14   56       1
    62   18   57       1
    63   18   58       1
    64   20   59       1
    65   44   73       1
    66   28   60       1
    67   28   61       1
    68   29   62       1
    69   31   63       1
    70   32   64       1
    71   33   65       1
    72   34   66       1
    73   35   67       1
    74   37   68       1
    75   41   69       1
    76   41   70       1
    77   42   71       1
@<TRIPOS>SUBSTRUCTURE
     1 NDP262      1 GROUP             4 A     NDP     0 **** NDP A 262
