@<TRIPOS>MOLECULE
4njo_NAD_1_ligand
   70    74     1     0     0
SMALL
NO_CHARGES


@<TRIPOS>ATOM
     1 PA          -9.2890   -20.1460   -23.0380 P.3          1 NAD401   0.0000
     2 O1A         -8.8350   -21.3010   -23.8960 O.co2        1 NAD401   0.0000
     3 O2A        -10.2900   -19.1520   -23.5730 O.co2        1 NAD401  -1.0000
     4 O5B         -8.0020   -19.3310   -22.5310 O.3          1 NAD401   0.0000
     5 C5B         -6.8350   -20.0160   -22.0860 C.3          1 NAD401   0.0000
     6 C4B         -5.6330   -19.2400   -22.6010 C.3          1 NAD401   0.0000
     7 O4B         -4.4100   -19.7980   -22.1200 O.3          1 NAD401   0.0000
     8 C3B         -5.5740   -19.2620   -24.1230 C.3          1 NAD401   0.0000
     9 O3B         -5.7120   -17.9290   -24.6200 O.3          1 NAD401   0.0000
    10 C2B         -4.1980   -19.7850   -24.4550 C.3          1 NAD401   0.0000
    11 O2B         -3.5740   -19.0170   -25.4830 O.3          1 NAD401   0.0000
    12 C1B         -3.4370   -19.6600   -23.1510 C.3          1 NAD401   0.0000
    13 N9A         -2.4330   -20.7360   -23.0830 N.pl3        1 NAD401   0.0000
    14 C8A         -2.5920   -21.9830   -23.5560 C.2          1 NAD401   0.0000
    15 N7A         -1.4790   -22.7270   -23.3420 N.2          1 NAD401   0.0000
    16 C5A         -0.5820   -21.9390   -22.7210 C.ar         1 NAD401   0.0000
    17 C6A          0.8000   -22.0890   -22.2070 C.ar         1 NAD401   0.0000
    18 N6A          1.4600   -23.2670   -22.3190 N.pl3        1 NAD401   0.0000
    19 N1A          1.3770   -21.0130   -21.6210 N.ar         1 NAD401   0.0000
    20 C2A          0.7330   -19.8330   -21.5050 C.ar         1 NAD401   0.0000
    21 N3A         -0.5230   -19.6240   -21.9500 N.ar         1 NAD401   0.0000
    22 C4A         -1.2180   -20.6220   -22.5540 C.ar         1 NAD401   0.0000
    23 O3          -9.8470   -20.7470   -21.6570 O.3          1 NAD401   0.0000
    24 PN         -10.6030   -19.8040   -20.5980 P.3          1 NAD401   0.0000
    25 O1N        -12.0800   -19.8830   -20.8760 O.co2        1 NAD401   0.0000
    26 O2N         -9.9220   -18.4550   -20.5530 O.co2        1 NAD401  -1.0000
    27 O5D        -10.2870   -20.5870   -19.2310 O.3          1 NAD401   0.0000
    28 C5D         -8.9480   -20.6070   -18.7470 C.3          1 NAD401   0.0000
    29 C4D         -8.6650   -21.8570   -17.9250 C.3          1 NAD401   0.0000
    30 O4D         -9.1350   -21.6890   -16.5870 O.3          1 NAD401   0.0000
    31 C3D         -9.3520   -23.0950   -18.4720 C.3          1 NAD401   0.0000
    32 O3D         -8.4650   -23.7930   -19.3430 O.3          1 NAD401   0.0000
    33 C2D         -9.6960   -23.9120   -17.2430 C.3          1 NAD401   0.0000
    34 O2D         -8.6500   -24.8430   -16.9590 O.3          1 NAD401   0.0000
    35 C1D         -9.7520   -22.8910   -16.1190 C.3          1 NAD401   0.0000
    36 N1N        -11.1390   -22.6070   -15.7670 N.ar         1 NAD401   1.0000
    37 C2N        -11.5110   -22.6790   -14.4810 C.ar         1 NAD401   0.0000
    38 C3N        -12.8290   -22.4070   -14.1140 C.ar         1 NAD401   0.0000
    39 C7N        -13.2530   -22.4760   -12.6720 C.2          1 NAD401   0.0000
    40 O7N        -14.4170   -22.7090   -12.3910 O.2          1 NAD401   0.0000
    41 N7N        -12.3440   -22.2570   -11.7210 N.am         1 NAD401   0.0000
    42 C4N        -13.7500   -22.0620   -15.1030 C.ar         1 NAD401   0.0000
    43 C5N        -13.3390   -21.9900   -16.4320 C.ar         1 NAD401   0.0000
    44 C6N        -12.0130   -22.2690   -16.7350 C.ar         1 NAD401   0.0000
    45 H5B1        -6.8239   -20.9467   -22.4515 H            1 NAD401   0.0000
    46 H5B2        -6.8181   -20.0501   -21.0867 H            1 NAD401   0.0000
    47 H4B         -5.7015   -18.2915   -22.2919 H            1 NAD401   0.0000
    48 H3B         -6.2830   -19.8585   -24.4992 H            1 NAD401   0.0000
    49 H5          -4.9691   -17.3620   -24.2642 H            1 NAD401   0.0000
    50 H2B         -4.2529   -20.7450   -24.7294 H            1 NAD401   0.0000
    51 H7          -3.0545   -18.2684   -25.0711 H            1 NAD401   0.0000
    52 H1B         -2.9928   -18.7660   -23.0922 H            1 NAD401   0.0000
    53 H8A         -3.4201   -22.3177   -24.0056 H            1 NAD401   0.0000
    54 H6A1         2.3922   -23.3532   -21.9675 H            1 NAD401   0.0000
    55 H6A2         1.0149   -24.0502   -22.7532 H            1 NAD401   0.0000
    56 H2A          1.2123   -19.0731   -21.0658 H            1 NAD401   0.0000
    57 H5D1        -8.7986   -19.8014   -18.1737 H            1 NAD401   0.0000
    58 H5D2        -8.3214   -20.5826   -19.5260 H            1 NAD401   0.0000
    59 H4D         -7.6779   -22.0157   -17.9048 H            1 NAD401   0.0000
    60 H3D        -10.1859   -22.8394   -18.9611 H            1 NAD401   0.0000
    61 H17         -8.9216   -24.6075   -19.7009 H            1 NAD401   0.0000
    62 H2D        -10.5743   -24.3775   -17.3526 H            1 NAD401   0.0000
    63 H19         -8.8889   -25.3753   -16.1468 H            1 NAD401   0.0000
    64 H1D         -9.2613   -23.2371   -15.3193 H            1 NAD401   0.0000
    65 H2N        -10.8409   -22.9287   -13.7820 H            1 NAD401   0.0000
    66 H7N1       -12.6084   -22.2989   -10.7575 H            1 NAD401   0.0000
    67 H7N2       -11.3981   -22.0509   -11.9714 H            1 NAD401   0.0000
    68 H4N        -14.7001   -21.8674   -14.8593 H            1 NAD401   0.0000
    69 H5N        -13.9859   -21.7424   -17.1533 H            1 NAD401   0.0000
    70 H6N        -11.7026   -22.2184   -17.6843 H            1 NAD401   0.0000
@<TRIPOS>BOND
     1    1    2      ar
     2    1    3      ar
     3    1    4       1
     4    1   23       1
     5    4    5       1
     6    5    6       1
     7    6    7       1
     8    6    8       1
     9    7   12       1
    10    8    9       1
    11    8   10       1
    12   10   11       1
    13   10   12       1
    14   12   13       1
    15   13   14       1
    16   13   22       1
    17   14   15       2
    18   15   16       1
    19   16   17      ar
    20   16   22      ar
    21   17   18       1
    22   17   19      ar
    23   19   20      ar
    24   20   21      ar
    25   21   22      ar
    26   23   24       1
    27   24   25      ar
    28   24   26      ar
    29   24   27       1
    30   27   28       1
    31   28   29       1
    32   29   30       1
    33   29   31       1
    34   30   35       1
    35   31   32       1
    36   31   33       1
    37   33   34       1
    38   33   35       1
    39   35   36       1
    40   36   37      ar
    41   36   44      ar
    42   37   38      ar
    43   38   39       1
    44   38   42      ar
    45   39   40       2
    46   39   41      am
    47   42   43      ar
    48   43   44      ar
    49   44   70       1
    50    5   45       1
    51    5   46       1
    52    6   47       1
    53    8   48       1
    54    9   49       1
    55   10   50       1
    56   11   51       1
    57   12   52       1
    58   14   53       1
    59   18   54       1
    60   18   55       1
    61   20   56       1
    62   43   69       1
    63   28   57       1
    64   28   58       1
    65   29   59       1
    66   31   60       1
    67   32   61       1
    68   33   62       1
    69   34   63       1
    70   35   64       1
    71   37   65       1
    72   41   66       1
    73   41   67       1
    74   42   68       1
@<TRIPOS>SUBSTRUCTURE
     1 NAD401      1 GROUP             4 A     NAD     0 **** NAD A 401
