@<TRIPOS>MOLECULE
4l7v_SAH_1_ligand
   46    48     1     0     0
SMALL
NO_CHARGES


@<TRIPOS>ATOM
     1 N           -4.5650    15.5560     9.4130 N.4          1 SAH301   1.0000
     2 CA          -4.9050    14.1650     9.6730 C.3          1 SAH301   0.0000
     3 CB          -6.3950    14.0110     9.8980 C.3          1 SAH301   0.0000
     4 CG          -6.8300    14.3080    11.3170 C.3          1 SAH301   0.0000
     5 SD          -7.9100    12.9940    11.9050 S.3          1 SAH301   0.0000
     6 C           -4.5290    13.2510     8.5200 C.2          1 SAH301   0.0000
     7 O           -4.6990    12.0320     8.5950 O.co2        1 SAH301   0.0000
     8 OXT         -4.0650    13.7190     7.4870 O.co2        1 SAH301  -1.0000
     9 C5'         -7.9950    13.8940    13.4810 C.3          1 SAH301   0.0000
    10 C4'         -6.7940    13.5910    14.3750 C.3          1 SAH301   0.0000
    11 O4'         -6.6970    14.4970    15.4550 O.3          1 SAH301   0.0000
    12 C3'         -6.8900    12.2120    14.9890 C.3          1 SAH301   0.0000
    13 O3'         -5.6970    11.5390    14.6860 O.3          1 SAH301   0.0000
    14 C2'         -6.9500    12.4490    16.4850 C.3          1 SAH301   0.0000
    15 O2'         -6.2410    11.4620    17.1880 O.3          1 SAH301   0.0000
    16 C1'         -6.2810    13.7970    16.6130 C.3          1 SAH301   0.0000
    17 N9          -6.6750    14.5110    17.8430 N.pl3        1 SAH301   0.0000
    18 C8          -7.8730    14.4500    18.4960 C.2          1 SAH301   0.0000
    19 N7          -7.8020    15.2750    19.5630 N.2          1 SAH301   0.0000
    20 C5          -6.5850    15.8590    19.5980 C.ar         1 SAH301   0.0000
    21 C6          -5.9920    16.7700    20.4720 C.ar         1 SAH301   0.0000
    22 N6          -6.6450    17.2400    21.5340 N.pl3        1 SAH301   0.0000
    23 N1          -4.7000    17.1770    20.2380 N.ar         1 SAH301   0.0000
    24 C2          -4.0110    16.6890    19.1480 C.ar         1 SAH301   0.0000
    25 N3          -4.6080    15.7890    18.2990 N.ar         1 SAH301   0.0000
    26 C4          -5.8720    15.3820    18.5210 C.ar         1 SAH301   0.0000
    27 H1          -3.5789    15.6365     9.2674 H            1 SAH301   0.0000
    28 H2          -5.0493    15.8705     8.5966 H            1 SAH301   0.0000
    29 HA          -4.4218    13.8630    10.4948 H            1 SAH301   0.0000
    30 HB1         -6.6516    13.0695     9.6797 H            1 SAH301   0.0000
    31 HB2         -6.8736    14.6380     9.2833 H            1 SAH301   0.0000
    32 HG1         -7.3222    15.1782    11.3389 H            1 SAH301   0.0000
    33 HG2         -6.0245    14.3657    11.9068 H            1 SAH301   0.0000
    34 H5'1        -8.8308    13.6274    13.9609 H            1 SAH301   0.0000
    35 H5'2        -8.0179    14.8757    13.2919 H            1 SAH301   0.0000
    36 H4'         -5.9588    13.6462    13.8278 H            1 SAH301   0.0000
    37 H3'         -7.6918    11.7135    14.6594 H            1 SAH301   0.0000
    38 H12         -4.9233    12.0423    15.0709 H            1 SAH301   0.0000
    39 H2'         -7.8986    12.4938    16.7982 H            1 SAH301   0.0000
    40 H14         -5.2910    11.7523    17.3031 H            1 SAH301   0.0000
    41 H1'         -5.2879    13.6813    16.5961 H            1 SAH301   0.0000
    42 H16         -8.6612    13.8943    18.2316 H            1 SAH301   0.0000
    43 H17         -6.1991    17.8926    22.1466 H            1 SAH301   0.0000
    44 H18         -7.5810    16.9402    21.7185 H            1 SAH301   0.0000
    45 H19         -3.0736    16.9912    18.9749 H            1 SAH301   0.0000
    46 H20         -4.8332    16.1167    10.1964 H            1 SAH301   0.0000
@<TRIPOS>BOND
     1    1    2       1
     2    2    3       1
     3    2    6       1
     4    3    4       1
     5    4    5       1
     6    5    9       1
     7    6    7      ar
     8    6    8      ar
     9    9   10       1
    10   10   11       1
    11   10   12       1
    12   11   16       1
    13   12   13       1
    14   12   14       1
    15   14   15       1
    16   14   16       1
    17   16   17       1
    18   17   18       1
    19   17   26       1
    20   18   19       2
    21   19   20       1
    22   20   21      ar
    23   20   26      ar
    24   21   22       1
    25   21   23      ar
    26   23   24      ar
    27   24   25      ar
    28   25   26      ar
    29    1   27       1
    30    1   28       1
    31    2   29       1
    32    3   30       1
    33    3   31       1
    34    4   32       1
    35    4   33       1
    36    1   46       1
    37    9   34       1
    38    9   35       1
    39   10   36       1
    40   12   37       1
    41   13   38       1
    42   14   39       1
    43   15   40       1
    44   16   41       1
    45   18   42       1
    46   22   43       1
    47   22   44       1
    48   24   45       1
@<TRIPOS>SUBSTRUCTURE
     1 SAH301      1 GROUP             4 A     SAH     0 **** SAH A 301
