@<TRIPOS>MOLECULE
4p8r_NAD_3_ligand
   70    74     1     0     0
SMALL
NO_CHARGES


@<TRIPOS>ATOM
     1 PA          70.1570   -21.7190     9.6110 P.3          1 NAD400   0.0000
     2 O1A         69.5420   -23.0460    10.0480 O.co2        1 NAD400   0.0000
     3 O2A         69.4740   -20.5130    10.2060 O.co2        1 NAD400  -1.0000
     4 O5B         70.1110   -21.5610     7.9810 O.3          1 NAD400   0.0000
     5 C5B         70.1280   -22.7420     7.1730 C.3          1 NAD400   0.0000
     6 C4B         69.1690   -22.4980     5.9510 C.3          1 NAD400   0.0000
     7 O4B         69.4380   -23.3510     5.0090 O.3          1 NAD400   0.0000
     8 C3B         67.7220   -22.7810     6.3900 C.3          1 NAD400   0.0000
     9 O3B         66.9060   -21.7530     6.0510 O.3          1 NAD400   0.0000
    10 C2B         67.3700   -24.0840     5.6400 C.3          1 NAD400   0.0000
    11 O2B         65.8910   -24.1270     5.3620 O.3          1 NAD400   0.0000
    12 C1B         68.0620   -23.9760     4.5450 C.3          1 NAD400   0.0000
    13 N9A         68.3650   -25.2200     3.9070 N.pl3        1 NAD400   0.0000
    14 C8A         68.4260   -26.3960     4.5590 C.2          1 NAD400   0.0000
    15 N7A         68.7480   -27.3670     3.6490 N.2          1 NAD400   0.0000
    16 C5A         68.8910   -26.7700     2.4260 C.ar         1 NAD400   0.0000
    17 C6A         69.2140   -27.2770     1.1800 C.ar         1 NAD400   0.0000
    18 N6A         69.5070   -28.6260     0.7380 N.pl3        1 NAD400   0.0000
    19 N1A         69.2850   -26.4520     0.1330 N.ar         1 NAD400   0.0000
    20 C2A         69.0470   -25.1190     0.2900 C.ar         1 NAD400   0.0000
    21 N3A         68.7310   -24.6210     1.5210 N.ar         1 NAD400   0.0000
    22 C4A         68.6550   -25.4480     2.5810 C.ar         1 NAD400   0.0000
    23 O3          71.7160   -21.7730    10.0290 O.3          1 NAD400   0.0000
    24 PN          72.7450   -20.5810     9.9930 P.3          1 NAD400   0.0000
    25 O1N         72.8010   -20.0470    11.4030 O.co2        1 NAD400   0.0000
    26 O2N         72.4060   -19.5070     9.0000 O.co2        1 NAD400  -1.0000
    27 O5D         74.1380   -21.1470     9.5840 O.3          1 NAD400   0.0000
    28 C5D         74.4020   -21.4900     8.2680 C.3          1 NAD400   0.0000
    29 C4D         75.9460   -21.7160     8.1340 C.3          1 NAD400   0.0000
    30 O4D         76.5700   -20.6350     8.5240 O.3          1 NAD400   0.0000
    31 C3D         76.3710   -22.8070     9.1050 C.3          1 NAD400   0.0000
    32 O3D         77.3570   -23.5660     8.5370 O.3          1 NAD400   0.0000
    33 C2D         76.8610   -21.9930    10.3600 C.3          1 NAD400   0.0000
    34 O2D         77.7620   -22.8450    11.2440 O.3          1 NAD400   0.0000
    35 C1D         77.4530   -20.9820     9.8230 C.3          1 NAD400   0.0000
    36 N1N         77.5570   -19.7980    10.6570 N.ar         1 NAD400   1.0000
    37 C2N         76.5440   -19.4180    11.5060 C.ar         1 NAD400   0.0000
    38 C3N         76.6830   -18.2770    12.2900 C.ar         1 NAD400   0.0000
    39 C7N         75.5730   -17.8510    13.2250 C.2          1 NAD400   0.0000
    40 O7N         75.8000   -17.1300    14.1610 O.2          1 NAD400   0.0000
    41 N7N         74.2470   -18.2810    13.0000 N.am         1 NAD400   0.0000
    42 C4N         77.8350   -17.5180    12.2080 C.ar         1 NAD400   0.0000
    43 C5N         78.8460   -17.8880    11.3560 C.ar         1 NAD400   0.0000
    44 C6N         78.7020   -19.0240    10.5810 C.ar         1 NAD400   0.0000
    45 H5B1        69.8075   -23.5246     7.7067 H            1 NAD400   0.0000
    46 H5B2        71.0568   -22.9186     6.8472 H            1 NAD400   0.0000
    47 H4B         69.2584   -21.5607     5.6141 H            1 NAD400   0.0000
    48 H3B         67.6875   -22.9343     7.3776 H            1 NAD400   0.0000
    49 H5          66.9230   -21.6271     5.0591 H            1 NAD400   0.0000
    50 H2B         67.6570   -24.8854     6.1648 H            1 NAD400   0.0000
    51 H7          65.7057   -23.7007     4.4766 H            1 NAD400   0.0000
    52 H1B         67.6017   -23.3617     3.9041 H            1 NAD400   0.0000
    53 H8A         68.2646   -26.5359     5.5359 H            1 NAD400   0.0000
    54 H6A1        69.7231   -28.8016    -0.2224 H            1 NAD400   0.0000
    55 H6A2        69.4930   -29.3811     1.3935 H            1 NAD400   0.0000
    56 H2A         69.1040   -24.5053    -0.4975 H            1 NAD400   0.0000
    57 H5D1        74.1120   -20.7517     7.6591 H            1 NAD400   0.0000
    58 H5D2        73.9132   -22.3294     8.0304 H            1 NAD400   0.0000
    59 H4D         76.1938   -21.9546     7.1950 H            1 NAD400   0.0000
    60 H3D         75.5881   -23.3801     9.3472 H            1 NAD400   0.0000
    61 H17         78.2496   -23.1746     8.7607 H            1 NAD400   0.0000
    62 H2D         76.0712   -21.6796    10.8872 H            1 NAD400   0.0000
    63 H19         77.8586   -23.7556    10.8422 H            1 NAD400   0.0000
    64 H1D         78.3690   -21.2572     9.5311 H            1 NAD400   0.0000
    65 H2N         75.7068   -19.9622    11.5599 H            1 NAD400   0.0000
    66 H7N1        73.5169   -17.9964    13.6212 H            1 NAD400   0.0000
    67 H7N2        74.0380   -18.8701    12.2194 H            1 NAD400   0.0000
    68 H4N         77.9325   -16.6971    12.7707 H            1 NAD400   0.0000
    69 H5N         79.6803   -17.3400    11.2964 H            1 NAD400   0.0000
    70 H6N         79.4360   -19.2904     9.9563 H            1 NAD400   0.0000
@<TRIPOS>BOND
     1    1    2      ar
     2    1    3      ar
     3    1    4       1
     4    1   23       1
     5    4    5       1
     6    5    6       1
     7    6    7       1
     8    6    8       1
     9    7   12       1
    10    8    9       1
    11    8   10       1
    12   10   11       1
    13   10   12       1
    14   12   13       1
    15   13   14       1
    16   13   22       1
    17   14   15       2
    18   15   16       1
    19   16   17      ar
    20   16   22      ar
    21   17   18       1
    22   17   19      ar
    23   19   20      ar
    24   20   21      ar
    25   21   22      ar
    26   23   24       1
    27   24   25      ar
    28   24   26      ar
    29   24   27       1
    30   27   28       1
    31   28   29       1
    32   29   30       1
    33   29   31       1
    34   30   35       1
    35   31   32       1
    36   31   33       1
    37   33   34       1
    38   33   35       1
    39   35   36       1
    40   36   37      ar
    41   36   44      ar
    42   37   38      ar
    43   38   39       1
    44   38   42      ar
    45   39   40       2
    46   39   41      am
    47   42   43      ar
    48   43   44      ar
    49   44   70       1
    50    5   45       1
    51    5   46       1
    52    6   47       1
    53    8   48       1
    54    9   49       1
    55   10   50       1
    56   11   51       1
    57   12   52       1
    58   14   53       1
    59   18   54       1
    60   18   55       1
    61   20   56       1
    62   43   69       1
    63   28   57       1
    64   28   58       1
    65   29   59       1
    66   31   60       1
    67   32   61       1
    68   33   62       1
    69   34   63       1
    70   35   64       1
    71   37   65       1
    72   41   66       1
    73   41   67       1
    74   42   68       1
@<TRIPOS>SUBSTRUCTURE
     1 NAD400      1 GROUP             4 C     NAD     0 **** NAD C 400
