@<TRIPOS>MOLECULE
2zoq_5ID_1_ligand
   33    35     1     0     0
SMALL
NO_CHARGES


@<TRIPOS>ATOM
     1 O5'         26.7550     8.4290    14.9830 O.3          1 5ID382   0.0000
     2 C5'         27.6450     9.4940    15.0450 C.3          1 5ID382   0.0000
     3 C4'         28.9610     9.1890    15.7230 C.3          1 5ID382   0.0000
     4 O4'         28.8080     9.2050    17.1410 O.3          1 5ID382   0.0000
     5 C1'         29.7360     8.3050    17.6810 C.3          1 5ID382   0.0000
     6 N9          29.0210     7.3310    18.4930 N.pl3        1 5ID382   0.0000
     7 C8          27.8390     6.7360    18.2180 C.2          1 5ID382   0.0000
     8 C7          27.4570     5.8550    19.2650 C.2          1 5ID382   0.0000
     9 C5          28.5470     5.9440    20.2410 C.ar         1 5ID382   0.0000
    10 C6          28.9100     5.4230    21.4470 C.ar         1 5ID382   0.0000
    11 N1          30.0810     5.8620    21.9880 N.ar         1 5ID382   0.0000
    12 C2          30.8730     6.7620    21.4100 C.ar         1 5ID382   0.0000
    13 N3          30.5870     7.3120    20.2310 N.ar         1 5ID382   0.0000
    14 C4          29.4310     6.8810    19.6720 C.ar         1 5ID382   0.0000
    15 N6          28.1770     4.5120    22.1140 N.pl3        1 5ID382   0.0000
    16 C2'         30.4110     7.6340    16.4650 C.3          1 5ID382   0.0000
    17 O2'         31.4800     8.5240    16.1750 O.3          1 5ID382   0.0000
    18 C3'         29.4540     7.8250    15.2970 C.3          1 5ID382   0.0000
    19 O3'         30.1940     7.8960    14.0610 O.3          1 5ID382   0.0000
    20 IAE         25.7510     4.7200    19.3300 I            1 5ID382   0.0000
    21 H5'         26.9086     7.9149    14.1391 H            1 5ID382   0.0000
    22 H5'1        27.2034    10.2384    15.5458 H            1 5ID382   0.0000
    23 H5'2        27.8393     9.7906    14.1100 H            1 5ID382   0.0000
    24 H4'         29.6345     9.8790    15.4578 H            1 5ID382   0.0000
    25 H1'         30.4136     8.7907    18.2332 H            1 5ID382   0.0000
    26 H6          27.3044     6.8948    17.3879 H            1 5ID382   0.0000
    27 H7          31.7135     7.0353    21.8779 H            1 5ID382   0.0000
    28 H8          28.4936     4.1647    22.9967 H            1 5ID382   0.0000
    29 H9          27.3159     4.1826    21.7268 H            1 5ID382   0.0000
    30 H2'         30.6919     6.6866    16.6187 H            1 5ID382   0.0000
    31 H11         32.0854     8.5875    16.9684 H            1 5ID382   0.0000
    32 H3'         28.7268     7.1390    15.2750 H            1 5ID382   0.0000
    33 H13         30.5059     6.9807    13.8062 H            1 5ID382   0.0000
@<TRIPOS>BOND
     1    1    2       1
     2    2    3       1
     3    3    4       1
     4    3   18       1
     5    4    5       1
     6    5    6       1
     7    5   16       1
     8    6    7       1
     9    6   14       1
    10    7    8       2
    11    8    9       1
    12    8   20       1
    13    9   10      ar
    14    9   14      ar
    15   10   11      ar
    16   10   15       1
    17   11   12      ar
    18   12   13      ar
    19   13   14      ar
    20   16   17       1
    21   16   18       1
    22   18   19       1
    23    1   21       1
    24    2   22       1
    25    2   23       1
    26    3   24       1
    27    5   25       1
    28    7   26       1
    29   12   27       1
    30   15   28       1
    31   15   29       1
    32   16   30       1
    33   17   31       1
    34   18   32       1
    35   19   33       1
@<TRIPOS>SUBSTRUCTURE
     1 5ID382      1 GROUP             4 A     5ID     0 **** 5ID A 382
