@<TRIPOS>MOLECULE
1z2p_ACP_1_ligand
   45    47     1     0     0
SMALL
NO_CHARGES


@<TRIPOS>ATOM
     1 PG          21.4240    -3.1140     8.5570 P.3          1 ACP1476   0.0000
     2 O1G         20.3170    -4.1600     8.5830 O.co2        1 ACP1476   0.0000
     3 O2G         21.4270    -2.1490     9.7450 O.co2        1 ACP1476  -1.0000
     4 O3G         22.7730    -3.6720     8.1760 O.co2        1 ACP1476  -1.0000
     5 PB          20.0050    -2.4870     5.9300 P.3          1 ACP1476   0.0000
     6 O1B         18.7830    -3.2060     6.4660 O.co2        1 ACP1476   0.0000
     7 O2B         20.8290    -3.1590     4.8720 O.co2        1 ACP1476  -1.0000
     8 C3B         21.0710    -1.9460     7.2280 C.3          1 ACP1476   0.0000
     9 PA          18.9570     0.2460     5.7230 P.3          1 ACP1476   0.0000
    10 O1A         17.4820     0.3520     5.4680 O.co2        1 ACP1476   0.0000
    11 O2A         19.4680     0.5270     7.1100 O.co2        1 ACP1476  -1.0000
    12 O3A         19.4910    -1.1640     5.1710 O.3          1 ACP1476   0.0000
    13 O5'         19.6480     1.2460     4.6810 O.3          1 ACP1476   0.0000
    14 C5'         21.0670     1.2700     4.5460 C.3          1 ACP1476   0.0000
    15 C4'         21.5930     2.6790     4.7830 C.3          1 ACP1476   0.0000
    16 O4'         21.0420     3.5650     3.8220 O.3          1 ACP1476   0.0000
    17 C3'         21.2040     3.2890     6.1220 C.3          1 ACP1476   0.0000
    18 O3'         22.1530     2.9780     7.1300 O.3          1 ACP1476   0.0000
    19 C2'         21.2330     4.7740     5.8460 C.3          1 ACP1476   0.0000
    20 O2'         22.5920     5.2490     5.8150 O.3          1 ACP1476   0.0000
    21 C1'         20.7340     4.8300     4.4340 C.3          1 ACP1476   0.0000
    22 N9          19.2770     5.0260     4.2760 N.pl3        1 ACP1476   0.0000
    23 C8          18.3110     4.0960     4.4200 C.2          1 ACP1476   0.0000
    24 N7          17.0850     4.5930     4.1270 N.2          1 ACP1476   0.0000
    25 C5          17.2930     5.8780     3.7920 C.ar         1 ACP1476   0.0000
    26 C6          16.4440     6.9760     3.3530 C.ar         1 ACP1476   0.0000
    27 N6          15.1190     6.8240     3.2200 N.pl3        1 ACP1476   0.0000
    28 N1          17.0240     8.1480     3.0650 N.ar         1 ACP1476   0.0000
    29 C2          18.3560     8.3160     3.1880 C.ar         1 ACP1476   0.0000
    30 N3          19.2240     7.3690     3.5650 N.ar         1 ACP1476   0.0000
    31 C4          18.7270     6.1500     3.8620 C.ar         1 ACP1476   0.0000
    32 H3B1        21.9444    -1.6924     6.8123 H            1 ACP1476   0.0000
    33 H3B2        20.6521    -1.1381     7.6426 H            1 ACP1476   0.0000
    34 H5'1        21.3162     0.9750     3.6236 H            1 ACP1476   0.0000
    35 H5'2        21.4733     0.6486     5.2159 H            1 ACP1476   0.0000
    36 H4'         22.5894     2.6780     4.6979 H            1 ACP1476   0.0000
    37 H3'         20.2874     2.9956     6.3937 H            1 ACP1476   0.0000
    38 H7          23.0570     2.8729     6.7157 H            1 ACP1476   0.0000
    39 H2'         20.6582     5.2939     6.4779 H            1 ACP1476   0.0000
    40 H9          23.2158     4.4859     5.9839 H            1 ACP1476   0.0000
    41 H1'         21.2168     5.5564     3.9449 H            1 ACP1476   0.0000
    42 H11         18.4792     3.1533     4.7082 H            1 ACP1476   0.0000
    43 H12         14.5555     7.5925     2.9169 H            1 ACP1476   0.0000
    44 H13         14.6939     5.9421     3.4239 H            1 ACP1476   0.0000
    45 H14         18.7258     9.2217     2.9808 H            1 ACP1476   0.0000
@<TRIPOS>BOND
     1    1    2      ar
     2    1    3      ar
     3    1    4      ar
     4    1    8       1
     5    5    6      ar
     6    5    7      ar
     7    5    8       1
     8    5   12       1
     9    9   10      ar
    10    9   11      ar
    11    9   12       1
    12    9   13       1
    13   13   14       1
    14   14   15       1
    15   15   16       1
    16   15   17       1
    17   16   21       1
    18   17   18       1
    19   17   19       1
    20   19   20       1
    21   19   21       1
    22   21   22       1
    23   22   23       1
    24   22   31       1
    25   23   24       2
    26   24   25       1
    27   25   26      ar
    28   25   31      ar
    29   26   27       1
    30   26   28      ar
    31   28   29      ar
    32   29   30      ar
    33   30   31      ar
    34   29   45       1
    35   27   44       1
    36   27   43       1
    37    8   32       1
    38    8   33       1
    39   23   42       1
    40   14   34       1
    41   14   35       1
    42   15   36       1
    43   17   37       1
    44   18   38       1
    45   19   39       1
    46   20   40       1
    47   21   41       1
@<TRIPOS>SUBSTRUCTURE
     1 ACP1476     1 GROUP             4 X     ACP     0 **** ACP X1476
