@<TRIPOS>MOLECULE
1z2a_GDP_1_ligand
   40    42     1     0     0
SMALL
NO_CHARGES


@<TRIPOS>ATOM
     1 PB          12.3930     4.3120    12.6270 P.3          1 GDP201   0.0000
     2 O1B         13.0050     3.2140    11.7830 O.co2        1 GDP201   0.0000
     3 O2B         10.9950     3.9140    13.0050 O.co2        1 GDP201  -1.0000
     4 O3B         13.2440     4.5580    13.8590 O.co2        1 GDP201  -1.0000
     5 O3A         12.2930     5.6500    11.7410 O.3          1 GDP201   0.0000
     6 PA          13.4200     6.7800    11.5840 P.3          1 GDP201   0.0000
     7 O1A         14.7810     6.2040    11.2940 O.co2        1 GDP201   0.0000
     8 O2A         13.4650     7.6650    12.8150 O.co2        1 GDP201  -1.0000
     9 O5'         12.8840     7.6370    10.3310 O.3          1 GDP201   0.0000
    10 C5'         12.7530     7.0370     9.0380 C.3          1 GDP201   0.0000
    11 C4'         12.6390     8.1260     7.9700 C.3          1 GDP201   0.0000
    12 O4'         11.3880     8.8010     8.1000 O.3          1 GDP201   0.0000
    13 C3'         13.7180     9.1840     8.0970 C.3          1 GDP201   0.0000
    14 O3'         14.0880     9.5920     6.7780 O.3          1 GDP201   0.0000
    15 C2'         13.0150    10.3170     8.8320 C.3          1 GDP201   0.0000
    16 O2'         13.5840    11.5970     8.5800 O.3          1 GDP201   0.0000
    17 C1'         11.6080    10.2050     8.2790 C.3          1 GDP201   0.0000
    18 N9          10.5800    10.8070     9.1670 N.pl3        1 GDP201   0.0000
    19 C8          10.4390    10.6380    10.5010 C.2          1 GDP201   0.0000
    20 N7           9.3830    11.3540    10.9680 N.2          1 GDP201   0.0000
    21 C5           8.8210    11.9980     9.9200 C.2          1 GDP201   0.0000
    22 C6           7.6720    12.9240     9.6980 C.2          1 GDP201   0.0000
    23 O6           6.9230    13.2990    10.6370 O.2          1 GDP201   0.0000
    24 N1           7.4480    13.3550     8.4450 N.pl3        1 GDP201   0.0000
    25 C2           8.2230    12.9830     7.3990 C.2          1 GDP201   0.0000
    26 N2           7.9340    13.4560     6.1660 N.pl3        1 GDP201   0.0000
    27 N3           9.2810    12.1460     7.5320 N.2          1 GDP201   0.0000
    28 C4           9.6210    11.6290     8.7400 C.2          1 GDP201   0.0000
    29 H5'1        11.9323     6.4660     9.0187 H            1 GDP201   0.0000
    30 H5'2        13.5567     6.4719     8.8514 H            1 GDP201   0.0000
    31 H4'         12.6943     7.7061     7.0641 H            1 GDP201   0.0000
    32 H3'         14.5059     8.8454     8.6114 H            1 GDP201   0.0000
    33 H5          15.0472     9.8747     6.7733 H            1 GDP201   0.0000
    34 H2'         13.0102    10.1340     9.8151 H            1 GDP201   0.0000
    35 H7          14.5615    11.4966     8.3946 H            1 GDP201   0.0000
    36 H1'         11.5721    10.6562     7.3873 H            1 GDP201   0.0000
    37 H9          11.0312    10.0642    11.0668 H            1 GDP201   0.0000
    38 H10          6.6801    13.9737     8.2789 H            1 GDP201   0.0000
    39 H11          8.4974    13.1901     5.3837 H            1 GDP201   0.0000
    40 H12          7.1569    14.0718     6.0362 H            1 GDP201   0.0000
@<TRIPOS>BOND
     1    1    2      ar
     2    1    3      ar
     3    1    4      ar
     4    1    5       1
     5    5    6       1
     6    6    7      ar
     7    6    8      ar
     8    6    9       1
     9    9   10       1
    10   10   11       1
    11   11   12       1
    12   11   13       1
    13   12   17       1
    14   13   14       1
    15   13   15       1
    16   15   16       1
    17   15   17       1
    18   17   18       1
    19   18   19       1
    20   18   28       1
    21   19   20       2
    22   20   21       1
    23   21   22       1
    24   21   28       2
    25   22   23       2
    26   22   24       1
    27   24   25       1
    28   25   26       1
    29   25   27       2
    30   27   28       1
    31   26   40       1
    32   26   39       1
    33   24   38       1
    34   10   29       1
    35   10   30       1
    36   11   31       1
    37   13   32       1
    38   14   33       1
    39   15   34       1
    40   16   35       1
    41   17   36       1
    42   19   37       1
@<TRIPOS>SUBSTRUCTURE
     1 GDP201      1 GROUP             4 A     GDP     0 **** GDP A 201
