@<TRIPOS>MOLECULE
2io8_ADP_1_ligand
   39    41     1     0     0
SMALL
NO_CHARGES


@<TRIPOS>ATOM
     1 PB           0.0560    17.2750    -2.7240 P.3          1 ADP5001   0.0000
     2 O1B         -0.1800    18.7170    -2.9100 O.co2        1 ADP5001   0.0000
     3 O2B         -0.6320    16.7310    -1.5370 O.co2        1 ADP5001  -1.0000
     4 O3B         -0.2090    16.4800    -4.0160 O.co2        1 ADP5001  -1.0000
     5 PA           2.7160    16.3340    -3.2330 P.3          1 ADP5001   0.0000
     6 O1A          3.7980    16.0110    -2.2470 O.co2        1 ADP5001   0.0000
     7 O2A          2.1660    15.1910    -4.0040 O.co2        1 ADP5001  -1.0000
     8 O3A          1.6050    17.1160    -2.4220 O.3          1 ADP5001   0.0000
     9 O5'          3.2960    17.5120    -4.1060 O.3          1 ADP5001   0.0000
    10 C5'          2.5630    17.9530    -5.3080 C.3          1 ADP5001   0.0000
    11 C4'          3.3970    17.8110    -6.5560 C.3          1 ADP5001   0.0000
    12 O4'          4.5770    18.6380    -6.3590 O.3          1 ADP5001   0.0000
    13 C3'          3.9990    16.4260    -6.8180 C.3          1 ADP5001   0.0000
    14 O3'          3.0330    15.6310    -7.4920 O.3          1 ADP5001   0.0000
    15 C2'          5.2280    16.7930    -7.6260 C.3          1 ADP5001   0.0000
    16 O2'          4.8780    17.1070    -9.0160 O.3          1 ADP5001   0.0000
    17 C1'          5.7350    18.0550    -6.9660 C.3          1 ADP5001   0.0000
    18 N9           6.7390    17.7740    -5.8820 N.pl3        1 ADP5001   0.0000
    19 C8           6.4850    17.4810    -4.5850 C.2          1 ADP5001   0.0000
    20 N7           7.5780    17.2960    -3.8580 N.2          1 ADP5001   0.0000
    21 C5           8.5860    17.4760    -4.7290 C.ar         1 ADP5001   0.0000
    22 C6          10.0340    17.4090    -4.5440 C.ar         1 ADP5001   0.0000
    23 N6          10.6510    17.1440    -3.4440 N.pl3        1 ADP5001   0.0000
    24 N1          10.7510    17.6620    -5.6950 N.ar         1 ADP5001   0.0000
    25 C2          10.1560    17.9530    -6.9290 C.ar         1 ADP5001   0.0000
    26 N3           8.8300    18.0170    -7.1140 N.ar         1 ADP5001   0.0000
    27 C4           8.0940    17.7750    -6.0000 C.ar         1 ADP5001   0.0000
    28 H5'1         2.3074    18.9134    -5.1970 H            1 ADP5001   0.0000
    29 H5'2         1.7373    17.3974    -5.4056 H            1 ADP5001   0.0000
    30 H4'          2.8830    18.1234    -7.3549 H            1 ADP5001   0.0000
    31 H3'          4.2654    15.9938    -5.9565 H            1 ADP5001   0.0000
    32 H5           2.2160    15.5445    -6.9218 H            1 ADP5001   0.0000
    33 H2'          5.9140    16.0666    -7.5846 H            1 ADP5001   0.0000
    34 H7           5.5266    17.7753    -9.3803 H            1 ADP5001   0.0000
    35 H1'          6.1217    18.6753    -7.6484 H            1 ADP5001   0.0000
    36 H9           5.5604    17.4108    -4.2107 H            1 ADP5001   0.0000
    37 H10         11.6506    17.1227    -3.4240 H            1 ADP5001   0.0000
    38 H11         10.1302    16.9597    -2.6105 H            1 ADP5001   0.0000
    39 H12         10.7522    18.1220    -7.7139 H            1 ADP5001   0.0000
@<TRIPOS>BOND
     1    1    2      ar
     2    1    3      ar
     3    1    4      ar
     4    1    8       1
     5    5    6      ar
     6    5    7      ar
     7    5    8       1
     8    5    9       1
     9    9   10       1
    10   10   11       1
    11   11   12       1
    12   11   13       1
    13   12   17       1
    14   13   14       1
    15   13   15       1
    16   15   16       1
    17   15   17       1
    18   17   18       1
    19   18   19       1
    20   18   27       1
    21   19   20       2
    22   20   21       1
    23   21   22      ar
    24   21   27      ar
    25   22   23       1
    26   22   24      ar
    27   24   25      ar
    28   25   26      ar
    29   26   27      ar
    30   25   39       1
    31   23   38       1
    32   23   37       1
    33   10   28       1
    34   10   29       1
    35   11   30       1
    36   13   31       1
    37   14   32       1
    38   15   33       1
    39   16   34       1
    40   17   35       1
    41   19   36       1
@<TRIPOS>SUBSTRUCTURE
     1 ADP5001     1 GROUP             4 A     ADP     0 **** ADP A5001
