@<TRIPOS>MOLECULE
2v19_FMN_8_ligand
   50    52     1     0     0
SMALL
NO_CHARGES


@<TRIPOS>ATOM
     1 N1          22.2020    18.4260    -9.2370 N.2          1 FMN101   0.0000
     2 C2          23.4840    18.8090    -9.5480 C.2          1 FMN101   0.0000
     3 O2          24.1050    19.5350    -8.7800 O.2          1 FMN101   0.0000
     4 N3          24.0820    18.3790   -10.7130 N.pl3        1 FMN101   0.0000
     5 C4          23.3960    17.5720   -11.5940 C.2          1 FMN101   0.0000
     6 O4          23.7360    17.6160   -12.7760 O.2          1 FMN101   0.0000
     7 C4A         22.1030    17.1640   -11.2700 C.2          1 FMN101   0.0000
     8 N5          21.3980    16.3390   -12.1260 N.2          1 FMN101   0.0000
     9 C5A         20.1150    15.9530   -11.8050 C.ar         1 FMN101   0.0000
    10 C6          19.4060    15.1360   -12.6740 C.ar         1 FMN101   0.0000
    11 C7          18.1160    14.7280   -12.3590 C.ar         1 FMN101   0.0000
    12 C7M         17.5990    13.4700   -12.9980 C.3          1 FMN101   0.0000
    13 C8          17.5330    15.1790   -11.1770 C.ar         1 FMN101   0.0000
    14 C8M         16.2310    14.6040   -10.7160 C.3          1 FMN101   0.0000
    15 C9          18.2310    16.0070   -10.3140 C.ar         1 FMN101   0.0000
    16 C9A         19.5260    16.3930   -10.6240 C.ar         1 FMN101   0.0000
    17 N10         20.2200    17.2250    -9.7690 N.pl3        1 FMN101   0.0000
    18 C10         21.5060    17.6060   -10.0940 C.2          1 FMN101   0.0000
    19 C1'         19.7280    17.4320    -8.3650 C.3          1 FMN101   0.0000
    20 C2'         18.8970    18.7100    -8.2840 C.3          1 FMN101   0.0000
    21 O2'         19.7570    19.8290    -8.3090 O.3          1 FMN101   0.0000
    22 C3'         18.0520    18.7630    -7.0140 C.3          1 FMN101   0.0000
    23 O3'         18.8850    18.9250    -5.8860 O.3          1 FMN101   0.0000
    24 C4'         17.2150    17.5060    -6.8180 C.3          1 FMN101   0.0000
    25 O4'         16.4410    17.2580    -7.9710 O.3          1 FMN101   0.0000
    26 C5'         16.3110    17.6480    -5.5950 C.3          1 FMN101   0.0000
    27 O5'         16.3880    18.9620    -5.0810 O.3          1 FMN101   0.0000
    28 P           15.0850    19.7120    -4.4880 P.3          1 FMN101   0.0000
    29 O1P         14.3900    20.4570    -5.6060 O.co2        1 FMN101   0.0000
    30 O2P         14.1380    18.6750    -3.9170 O.co2        1 FMN101  -1.0000
    31 O3P         15.5020    20.6900    -3.4020 O.co2        1 FMN101  -1.0000
    32 H1          25.0206    18.6548   -10.9203 H            1 FMN101   0.0000
    33 H2          19.8259    14.8393   -13.5317 H            1 FMN101   0.0000
    34 H7M1        16.6653    13.2965   -12.6848 H            1 FMN101   0.0000
    35 H7M2        17.6029    13.5753   -13.9924 H            1 FMN101   0.0000
    36 H7M3        18.1848    12.7010   -12.7420 H            1 FMN101   0.0000
    37 H8M1        15.9602    15.0386    -9.8570 H            1 FMN101   0.0000
    38 H8M2        15.5294    14.7697   -11.4091 H            1 FMN101   0.0000
    39 H8M3        16.3331    13.6194   -10.5738 H            1 FMN101   0.0000
    40 H9          17.8019    16.3259    -9.4689 H            1 FMN101   0.0000
    41 H1'1        20.5111    17.5069    -7.7477 H            1 FMN101   0.0000
    42 H1'2        19.1633    16.6525    -8.0940 H            1 FMN101   0.0000
    43 H2'         18.2901    18.7514    -9.0777 H            1 FMN101   0.0000
    44 H13         20.7055    19.5190    -8.3738 H            1 FMN101   0.0000
    45 H3'         17.4374    19.5497    -7.0723 H            1 FMN101   0.0000
    46 H15         18.3236    18.9587    -5.0591 H            1 FMN101   0.0000
    47 H4'         17.8303    16.7312    -6.6729 H            1 FMN101   0.0000
    48 H17         15.8947    16.4316    -7.8344 H            1 FMN101   0.0000
    49 H5'1        16.6032    17.0004    -4.8913 H            1 FMN101   0.0000
    50 H5'2        15.3665    17.4509    -5.8578 H            1 FMN101   0.0000
@<TRIPOS>BOND
     1    1    2       1
     2    1   18       2
     3    2    3       2
     4    2    4       1
     5    4    5       1
     6    5    6       2
     7    5    7       1
     8    7    8       2
     9    7   18       1
    10    8    9       1
    11    9   10      ar
    12    9   16      ar
    13   10   11      ar
    14   11   12       1
    15   11   13      ar
    16   13   14       1
    17   13   15      ar
    18   15   16      ar
    19   16   17       1
    20   17   18       1
    21   17   19       1
    22   19   20       1
    23   20   21       1
    24   20   22       1
    25   22   23       1
    26   22   24       1
    27   24   25       1
    28   24   26       1
    29   26   27       1
    30   27   28       1
    31   28   29      ar
    32   28   30      ar
    33   28   31      ar
    34    4   32       1
    35   10   33       1
    36   12   34       1
    37   12   35       1
    38   12   36       1
    39   14   37       1
    40   14   38       1
    41   14   39       1
    42   15   40       1
    43   19   41       1
    44   19   42       1
    45   20   43       1
    46   21   44       1
    47   22   45       1
    48   23   46       1
    49   24   47       1
    50   25   48       1
    51   26   49       1
    52   26   50       1
@<TRIPOS>SUBSTRUCTURE
     1 FMN101      1 GROUP             4 G     FMN     0 **** FMN G 101
