@<TRIPOS>MOLECULE
2xbk_XBK_1_ligand
   93    95     1     0     0
SMALL
NO_CHARGES


@<TRIPOS>ATOM
     1 O9          32.6470     5.0620     1.4430 O.2          1 XBK1399   0.0000
     2 C24         32.4170     5.3480     2.5950 C.2          1 XBK1399   0.0000
     3 C25         32.3180     4.4330     3.7360 C.2          1 XBK1399   0.0000
     4 C26         31.6460     3.3250     3.5930 C.2          1 XBK1399   0.0000
     5 C27         31.4900     2.4140     4.7380 C.2          1 XBK1399   0.0000
     6 C28         30.8250     1.2870     4.5400 C.2          1 XBK1399   0.0000
     7 C29         30.6670     0.3240     5.6700 C.3          1 XBK1399   0.0000
     8 C30         29.2090     0.0200     5.8950 C.3          1 XBK1399   0.0000
     9 C31         29.0520    -0.8540     7.1660 C.3          1 XBK1399   0.0000
    10 C32         27.6570    -1.5160     7.0910 C.3          1 XBK1399   0.0000
    11 O12         27.6480    -2.1800     5.8550 O.3          1 XBK1399   0.0000
    12 C33         27.3730    -2.4490     8.2630 C.3          1 XBK1399   0.0000
    13 O11         26.5820    -0.5550     7.0120 O.3          1 XBK1399   0.0000
    14 O10         28.5400     1.2950     5.9710 O.3          1 XBK1399   0.0000
    15 O8          32.1800     6.6820     2.8960 O.3          1 XBK1399   0.0000
    16 C22         31.7570     7.4390     1.7600 C.3          1 XBK1399   0.0000
    17 C23         32.2250     8.8670     2.1110 C.3          1 XBK1399   0.0000
    18 C21         30.2380     7.2430     1.3580 C.3          1 XBK1399   0.0000
    19 C20         29.5240     5.9480     1.7820 C.2          1 XBK1399   0.0000
    20 C19         29.3560     4.7320     1.1900 C.2          1 XBK1399   0.0000
    21 C18         28.5750     3.7060     1.9090 C.2          1 XBK1399   0.0000
    22 C17         28.4850     2.4050     1.6230 C.2          1 XBK1399   0.0000
    23 C16         27.6710     1.5210     2.4400 C.2          1 XBK1399   0.0000
    24 C15         27.6400     0.2440     2.1490 C.2          1 XBK1399   0.0000
    25 C14         26.8520    -0.6510     2.9520 C.2          1 XBK1399   0.0000
    26 C13         26.8920    -1.8400     2.4480 C.2          1 XBK1399   0.0000
    27 C6          26.1820    -3.0620     2.9820 C.3          1 XBK1399   0.0000
    28 C5          26.8610    -3.7190     4.2030 C.3          1 XBK1399   0.0000
    29 C4          26.4980    -3.0370     5.5270 C.3          1 XBK1399   0.0000
    30 C2          26.4160    -4.0990     6.6030 C.3          1 XBK1399   0.0000
    31 C3          25.3210    -5.0770     6.2850 C.2          1 XBK1399   0.0000
    32 O2          24.1660    -4.7210     6.2200 O.co2        1 XBK1399   0.0000
    33 O3          25.5580    -6.3470     6.0570 O.co2        1 XBK1399  -1.0000
    34 C1          26.1940    -3.3760     7.9490 C.3          1 XBK1399   0.0000
    35 O1          26.0950    -4.3420     9.0140 O.3          1 XBK1399   0.0000
    36 O4          24.7570    -2.8160     3.0000 O.3          1 XBK1399   0.0000
    37 C7          24.1360    -3.8910     2.2530 C.3          1 XBK1399   0.0000
    38 O7          23.7090    -3.4870     0.9400 O.3          1 XBK1399   0.0000
    39 C11         23.1540    -4.5820     0.1730 C.3          1 XBK1399   0.0000
    40 C12         22.6440    -3.9590    -1.1100 C.3          1 XBK1399   0.0000
    41 C10         22.0250    -5.2880     0.9160 C.3          1 XBK1399   0.0000
    42 O6          21.5110    -6.3730     0.1510 O.3          1 XBK1399   0.0000
    43 C9          22.4440    -5.7700     2.3110 C.3          1 XBK1399   0.0000
    44 N           21.2830    -6.1460     3.0600 N.4          1 XBK1399   1.0000
    45 C8          23.0760    -4.6050     3.0970 C.3          1 XBK1399   0.0000
    46 O5          22.0760    -3.6910     3.5520 O.3          1 XBK1399   0.0000
    47 H1          32.7572     4.6543     4.6067 H            1 XBK1399   0.0000
    48 H2          31.2384     3.0953     2.7092 H            1 XBK1399   0.0000
    49 H3          31.8729     2.6385     5.6341 H            1 XBK1399   0.0000
    50 H4          30.4326     1.0826     3.6432 H            1 XBK1399   0.0000
    51 H5          31.0530     0.7240     6.5012 H            1 XBK1399   0.0000
    52 H6          31.1512    -0.5233     5.4519 H            1 XBK1399   0.0000
    53 H7          28.8569    -0.4855     5.1073 H            1 XBK1399   0.0000
    54 H8          29.1178    -0.2839     7.9849 H            1 XBK1399   0.0000
    55 H9          29.7641    -1.5557     7.1902 H            1 XBK1399   0.0000
    56 H10         27.1538    -1.9024     9.0712 H            1 XBK1399   0.0000
    57 H11         28.1855    -3.0026     8.4454 H            1 XBK1399   0.0000
    58 H12         26.9053     0.2694     6.5474 H            1 XBK1399   0.0000
    59 H13         28.6757     1.7942     5.1152 H            1 XBK1399   0.0000
    60 H14         32.3073     7.1332     0.9830 H            1 XBK1399   0.0000
    61 H15         31.9757     9.4910     1.3704 H            1 XBK1399   0.0000
    62 H16         31.7849     9.1631     2.9587 H            1 XBK1399   0.0000
    63 H17         33.2177     8.8723     2.2314 H            1 XBK1399   0.0000
    64 H18         30.1884     7.2937     0.3605 H            1 XBK1399   0.0000
    65 H19         29.7272     8.0049     1.7563 H            1 XBK1399   0.0000
    66 H20         29.0921     6.0119     2.6817 H            1 XBK1399   0.0000
    67 H21         29.7515     4.5397     0.2919 H            1 XBK1399   0.0000
    68 H22         28.0533     4.0219     2.7015 H            1 XBK1399   0.0000
    69 H23         28.9828     2.0351     0.8386 H            1 XBK1399   0.0000
    70 H24         27.1442     1.8807     3.2101 H            1 XBK1399   0.0000
    71 H25         28.1622    -0.1067     1.3716 H            1 XBK1399   0.0000
    72 H26         26.3487    -0.3923     3.7765 H            1 XBK1399   0.0000
    73 H27         27.4465    -1.9633     1.6250 H            1 XBK1399   0.0000
    74 H28         26.2963    -3.7389     2.2548 H            1 XBK1399   0.0000
    75 H29         27.8523    -3.6710     4.0808 H            1 XBK1399   0.0000
    76 H30         26.5768    -4.6766     4.2491 H            1 XBK1399   0.0000
    77 H31         25.6499    -2.5120     5.4558 H            1 XBK1399   0.0000
    78 H32         27.2866    -4.5896     6.6396 H            1 XBK1399   0.0000
    79 H33         25.3508    -2.8403     7.9049 H            1 XBK1399   0.0000
    80 H34         26.4247    -3.9343     9.8655 H            1 XBK1399   0.0000
    81 H35         24.8587    -4.5658     2.1038 H            1 XBK1399   0.0000
    82 H36         23.8762    -5.2401    -0.0397 H            1 XBK1399   0.0000
    83 H37         22.2446    -4.6693    -1.6896 H            1 XBK1399   0.0000
    84 H38         21.9479    -3.2742    -0.8943 H            1 XBK1399   0.0000
    85 H39         23.4028    -3.5222    -1.5931 H            1 XBK1399   0.0000
    86 H40         21.2843    -4.6270     1.0360 H            1 XBK1399   0.0000
    87 H41         20.5431    -6.5034     0.3659 H            1 XBK1399   0.0000
    88 H42         23.0827    -6.5364     2.2422 H            1 XBK1399   0.0000
    89 H43         21.0872    -7.1147     2.9075 H            1 XBK1399   0.0000
    90 H44         21.4490    -5.9887     4.0335 H            1 XBK1399   0.0000
    91 H45         23.5306    -4.9880     3.9011 H            1 XBK1399   0.0000
    92 H46         22.5034    -2.9805     4.1110 H            1 XBK1399   0.0000
    93 H47         20.5020    -5.5972     2.7621 H            1 XBK1399   0.0000
@<TRIPOS>BOND
     1    1    2       2
     2    2    3       1
     3    2   15       1
     4    3    4       2
     5    4    5       1
     6    5    6       2
     7    6    7       1
     8    7    8       1
     9    8    9       1
    10    8   14       1
    11    9   10       1
    12   10   11       1
    13   10   12       1
    14   10   13       1
    15   11   29       1
    16   12   34       1
    17   15   16       1
    18   16   17       1
    19   16   18       1
    20   18   19       1
    21   19   20       2
    22   20   21       1
    23   21   22       2
    24   22   23       1
    25   23   24       2
    26   24   25       1
    27   25   26       2
    28   26   27       1
    29   27   28       1
    30   27   36       1
    31   28   29       1
    32   29   30       1
    33   30   31       1
    34   30   34       1
    35   31   32      ar
    36   31   33      ar
    37   34   35       1
    38   36   37       1
    39   37   38       1
    40   37   45       1
    41   38   39       1
    42   39   40       1
    43   39   41       1
    44   41   42       1
    45   41   43       1
    46   43   44       1
    47   43   45       1
    48   45   46       1
    49    3   47       1
    50    4   48       1
    51    5   49       1
    52    6   50       1
    53    7   51       1
    54    7   52       1
    55    8   53       1
    56    9   54       1
    57    9   55       1
    58   12   56       1
    59   12   57       1
    60   13   58       1
    61   14   59       1
    62   16   60       1
    63   17   61       1
    64   17   62       1
    65   17   63       1
    66   18   64       1
    67   18   65       1
    68   19   66       1
    69   20   67       1
    70   21   68       1
    71   22   69       1
    72   23   70       1
    73   24   71       1
    74   25   72       1
    75   26   73       1
    76   27   74       1
    77   28   75       1
    78   28   76       1
    79   29   77       1
    80   30   78       1
    81   46   92       1
    82   34   79       1
    83   35   80       1
    84   37   81       1
    85   39   82       1
    86   40   83       1
    87   40   84       1
    88   40   85       1
    89   41   86       1
    90   42   87       1
    91   43   88       1
    92   44   89       1
    93   44   90       1
    94   45   91       1
    95   44   93       1
@<TRIPOS>SUBSTRUCTURE
     1 XBK1399     1 GROUP             4 A     XBK     0 **** XBK A1399
