@<TRIPOS>MOLECULE
2ixk_TDO_1_ligand
   57    59     1     0     0
SMALL
NO_CHARGES


@<TRIPOS>ATOM
     1 O4P         14.3280    12.3380    17.8870 O.co2        1 TDO1185   0.0000
     2 P2          15.7450    12.4260    17.3680 P.3          1 TDO1185   0.0000
     3 O3P         16.5220    13.9060    17.4630 O.co2        1 TDO1185  -1.0000
     4 O1          16.5710    11.2610    18.1310 O.3          1 TDO1185   0.0000
     5 C1          17.6080    11.5460    19.0730 C.3          1 TDO1185   0.0000
     6 C2          18.4900    10.3030    19.2010 C.3          1 TDO1185   0.0000
     7 O2          17.7110     9.1820    19.6260 O.3          1 TDO1185   0.0000
     8 C3          19.5890    10.5470    20.2220 C.3          1 TDO1185   0.0000
     9 O3          20.4700     9.4120    20.3560 O.3          1 TDO1185   0.0000
    10 C4          18.9170    10.9250    21.5100 C.2          1 TDO1185   0.0000
    11 O4          19.1190    10.2870    22.5430 O.2          1 TDO1185   0.0000
    12 C5          18.0050    12.1190    21.4110 C.3          1 TDO1185   0.0000
    13 O5          17.0540    11.8850    20.3560 O.3          1 TDO1185   0.0000
    14 C6          17.2500    12.4000    22.7090 C.3          1 TDO1185   0.0000
    15 OPP         15.8060    12.0310    15.8040 O.3          1 TDO1185   0.0000
    16 P           14.8080    11.0460    15.0060 P.3          1 TDO1185   0.0000
    17 O1P         13.4200    11.6400    14.9300 O.co2        1 TDO1185   0.0000
    18 O2P         14.8430     9.4630    15.5460 O.co2        1 TDO1185  -1.0000
    19 O5'         15.4200    11.0910    13.5260 O.3          1 TDO1185   0.0000
    20 C5'         15.3530    12.2990    12.7810 C.3          1 TDO1185   0.0000
    21 C4'         15.9950    12.1080    11.4230 C.3          1 TDO1185   0.0000
    22 O4'         17.4130    11.9160    11.5110 O.3          1 TDO1185   0.0000
    23 C3'         15.4510    10.8860    10.7290 C.3          1 TDO1185   0.0000
    24 O3'         15.2700    11.2590     9.3600 O.3          1 TDO1185   0.0000
    25 C2'         16.5270     9.8280    10.8810 C.3          1 TDO1185   0.0000
    26 C1'         17.7960    10.6660    10.9380 C.3          1 TDO1185   0.0000
    27 N11         18.8660    10.1670    11.8050 N.pl3        1 TDO1185   0.0000
    28 C21         20.1020     9.9360    11.3260 C.2          1 TDO1185   0.0000
    29 O21         20.3800    10.0600    10.1150 O.2          1 TDO1185   0.0000
    30 N31         21.0790     9.5250    12.1310 N.pl3        1 TDO1185   0.0000
    31 C41         20.9170     9.3580    13.4410 C.2          1 TDO1185   0.0000
    32 O41         21.8630     8.9770    14.1450 O.2          1 TDO1185   0.0000
    33 C51         19.5750     9.6080    14.0160 C.2          1 TDO1185   0.0000
    34 C5A         19.2820     9.4470    15.4890 C.3          1 TDO1185   0.0000
    35 C61         18.6080    10.0420    13.1270 C.2          1 TDO1185   0.0000
    36 H1          18.1591    12.3101    18.7378 H            1 TDO1185   0.0000
    37 H2          18.9037    10.0995    18.3136 H            1 TDO1185   0.0000
    38 H3          16.9909     9.0031    18.9556 H            1 TDO1185   0.0000
    39 H4          20.1323    11.3279    19.9137 H            1 TDO1185   0.0000
    40 H5          21.1751     9.6157    21.0353 H            1 TDO1185   0.0000
    41 H6          18.5524    12.9227    21.1775 H            1 TDO1185   0.0000
    42 H7          16.6622    13.1997    22.5863 H            1 TDO1185   0.0000
    43 H8          16.6888    11.6071    22.9465 H            1 TDO1185   0.0000
    44 H9          17.9047    12.5771    23.4438 H            1 TDO1185   0.0000
    45 H5'1        15.8360    13.0208    13.2768 H            1 TDO1185   0.0000
    46 H5'2        14.3954    12.5608    12.6605 H            1 TDO1185   0.0000
    47 H4'         15.8096    12.9126    10.8589 H            1 TDO1185   0.0000
    48 H3'         14.5895    10.5887    11.1407 H            1 TDO1185   0.0000
    49 H14         16.1488    11.5348     8.9707 H            1 TDO1185   0.0000
    50 H2'1        16.5377     9.2066    10.0976 H            1 TDO1185   0.0000
    51 H2'2        16.4019     9.3018    11.7221 H            1 TDO1185   0.0000
    52 H1'         18.1485    10.8107    10.0135 H            1 TDO1185   0.0000
    53 H18         21.9760     9.3329    11.7329 H            1 TDO1185   0.0000
    54 H5A1        18.3215     9.6639    15.6635 H            1 TDO1185   0.0000
    55 H5A2        19.4660     8.5034    15.7643 H            1 TDO1185   0.0000
    56 H5A3        19.8645    10.0671    16.0145 H            1 TDO1185   0.0000
    57 H22         17.6964    10.2688    13.4699 H            1 TDO1185   0.0000
@<TRIPOS>BOND
     1    1    2      ar
     2    2    3      ar
     3    2    4       1
     4    2   15       1
     5    4    5       1
     6    5    6       1
     7    5   13       1
     8    6    7       1
     9    6    8       1
    10    8    9       1
    11    8   10       1
    12   10   11       2
    13   10   12       1
    14   12   13       1
    15   12   14       1
    16   15   16       1
    17   16   17      ar
    18   16   18      ar
    19   16   19       1
    20   19   20       1
    21   20   21       1
    22   21   22       1
    23   21   23       1
    24   22   26       1
    25   23   24       1
    26   23   25       1
    27   25   26       1
    28   26   27       1
    29   27   28       1
    30   27   35       1
    31   28   29       2
    32   28   30       1
    33   30   31       1
    34   31   32       2
    35   31   33       1
    36   33   34       1
    37   33   35       2
    38   35   57       1
    39    5   36       1
    40    6   37       1
    41    7   38       1
    42    8   39       1
    43    9   40       1
    44   12   41       1
    45   14   42       1
    46   14   43       1
    47   14   44       1
    48   34   56       1
    49   20   45       1
    50   20   46       1
    51   21   47       1
    52   23   48       1
    53   24   49       1
    54   25   50       1
    55   25   51       1
    56   26   52       1
    57   30   53       1
    58   34   54       1
    59   34   55       1
@<TRIPOS>SUBSTRUCTURE
     1 TDO1185     1 GROUP             4 A     TDO     0 **** TDO A1185
