@<TRIPOS>MOLECULE
4m08_IMD_4_ligand
    9     9     1     0     0
SMALL
NO_CHARGES


@<TRIPOS>ATOM
     1 N1         -26.9530    -0.8670    -6.9680 N.2          1 IMD304   0.0000
     2 C2         -25.9890    -1.7290    -7.3640 C.2          1 IMD304   0.0000
     3 N3         -25.8140    -1.5940    -8.6970 N.pl3        1 IMD304   0.0000
     4 C4         -26.6700    -0.6480    -9.1420 C.2          1 IMD304   0.0000
     5 C5         -27.3920    -0.1900    -8.0490 C.2          1 IMD304   0.0000
     6 H1         -25.4898    -2.3600    -6.7702 H            1 IMD304   0.0000
     7 H2         -26.7658    -0.3349   -10.0869 H            1 IMD304   0.0000
     8 H3         -28.1049     0.5112    -8.0606 H            1 IMD304   0.0000
     9 H4         -25.1631    -2.1060    -9.2576 H            1 IMD304   0.0000
@<TRIPOS>BOND
     1    1    2       2
     2    1    5       1
     3    2    3       1
     4    3    4       1
     5    4    5       2
     6    5    8       1
     7    2    6       1
     8    4    7       1
     9    3    9       1
@<TRIPOS>SUBSTRUCTURE
     1 IMD304      1 GROUP             4 D     IMD     0 **** IMD D 304
