@<TRIPOS>MOLECULE
4mgr_IMD_4_ligand
   10    10     1     0     0
SMALL
NO_CHARGES


@<TRIPOS>ATOM
     1 N1          32.1880    14.0250   -48.0650 N.2          1 IMD502   1.0000
     2 C2          30.9410    14.5280   -48.2290 C.2          1 IMD502   0.0000
     3 N3          30.0590    13.7170   -47.5980 N.pl3        1 IMD502   0.0000
     4 C4          30.7470    12.6970   -47.0340 C.2          1 IMD502   0.0000
     5 C5          32.0940    12.8920   -47.3290 C.2          1 IMD502   0.0000
     6 H1          33.0323    14.4218   -48.4252 H            1 IMD502   0.0000
     7 H2          30.7100    15.3604   -48.7327 H            1 IMD502   0.0000
     8 H3          30.3598    11.9429   -46.5036 H            1 IMD502   0.0000
     9 H4          32.8525    12.3036   -47.0489 H            1 IMD502   0.0000
    10 H5          29.0687    13.8491   -47.5559 H            1 IMD502   0.0000
@<TRIPOS>BOND
     1    1    2       2
     2    1    5       1
     3    2    3       1
     4    3    4       1
     5    4    5       2
     6    1    6       1
     7    2    7       1
     8    4    8       1
     9    5    9       1
    10    3   10       1
@<TRIPOS>SUBSTRUCTURE
     1 IMD502      1 GROUP             4 D     IMD     0 **** IMD D 502
