@<TRIPOS>MOLECULE
2zv9_PP2_1_ligand
   37    39     1     0     0
SMALL
NO_CHARGES


@<TRIPOS>ATOM
     1 C1          19.1000     9.4940    -6.8470 C.ar         1 PP2513   0.0000
     2 N2          18.0750     9.8760    -6.0380 N.ar         1 PP2513   0.0000
     3 C3          16.8040     9.6510    -6.4110 C.ar         1 PP2513   0.0000
     4 N4          16.5110     9.0540    -7.5790 N.ar         1 PP2513   0.0000
     5 C5          17.4890     8.6550    -8.4210 C.ar         1 PP2513   0.0000
     6 C6          18.8290     8.8710    -8.0690 C.ar         1 PP2513   0.0000
     7 C8          20.0570     8.5820    -8.6840 C.2          1 PP2513   0.0000
     8 N9          21.0610     9.0170    -7.8900 N.2          1 PP2513   0.0000
     9 N10         20.4340     9.5670    -6.7760 N.pl3        1 PP2513   0.0000
    10 C11         20.2710     7.9440   -10.0080 C.ar         1 PP2513   0.0000
    11 C12         19.8770     8.6460   -11.1440 C.ar         1 PP2513   0.0000
    12 C13         20.0650     8.0930   -12.4030 C.ar         1 PP2513   0.0000
    13 C14         20.6590     6.8400   -12.5250 C.ar         1 PP2513   0.0000
    14 C15         21.0600     6.1370   -11.3870 C.ar         1 PP2513   0.0000
    15 C16         20.8710     6.6950   -10.1210 C.ar         1 PP2513   0.0000
    16 C22         21.2140    10.1440    -5.6320 C.3          1 PP2513   0.0000
    17 C23         20.9030     9.3420    -4.3740 C.3          1 PP2513   0.0000
    18 C24         20.8880    11.6170    -5.4190 C.3          1 PP2513   0.0000
    19 C25         22.7070    10.0320    -5.9120 C.3          1 PP2513   0.0000
    20 N25         17.1300     8.0560    -9.5840 N.pl3        1 PP2513   0.0000
    21 CL          20.9010     6.1400   -14.1610 Cl           1 PP2513   0.0000
    22 H1          16.0596     9.9340    -5.8062 H            1 PP2513   0.0000
    23 H2          19.4582     9.5495   -11.0527 H            1 PP2513   0.0000
    24 H3          19.7749     8.5927   -13.2192 H            1 PP2513   0.0000
    25 H4          21.4820     5.2350   -11.4786 H            1 PP2513   0.0000
    26 H5          21.1646     6.2006    -9.3029 H            1 PP2513   0.0000
    27 H6          21.4178     9.7177    -3.6034 H            1 PP2513   0.0000
    28 H7          19.9238     9.3953    -4.1783 H            1 PP2513   0.0000
    29 H8          21.1633     8.3868    -4.5148 H            1 PP2513   0.0000
    30 H9          21.4234    11.9693    -4.6514 H            1 PP2513   0.0000
    31 H10         21.1134    12.1313    -6.2465 H            1 PP2513   0.0000
    32 H11         19.9133    11.7172    -5.2194 H            1 PP2513   0.0000
    33 H12         23.2198    10.4185    -5.1454 H            1 PP2513   0.0000
    34 H13         22.9534     9.0696    -6.0265 H            1 PP2513   0.0000
    35 H14         22.9280    10.5344    -6.7479 H            1 PP2513   0.0000
    36 H15         17.8325     7.7503   -10.2266 H            1 PP2513   0.0000
    37 H16         16.1628     7.9202    -9.7987 H            1 PP2513   0.0000
@<TRIPOS>BOND
     1    1    2      ar
     2    1    6      ar
     3    1    9       1
     4    2    3      ar
     5    3    4      ar
     6    4    5      ar
     7    5    6      ar
     8    5   20       1
     9    6    7       1
    10    7    8       2
    11    7   10       1
    12    8    9       1
    13    9   16       1
    14   10   11      ar
    15   10   15      ar
    16   11   12      ar
    17   12   13      ar
    18   13   14      ar
    19   13   21       1
    20   14   15      ar
    21   16   17       1
    22   16   18       1
    23   16   19       1
    24    3   22       1
    25   11   23       1
    26   12   24       1
    27   14   25       1
    28   15   26       1
    29   17   27       1
    30   17   28       1
    31   17   29       1
    32   18   30       1
    33   18   31       1
    34   18   32       1
    35   19   33       1
    36   19   34       1
    37   19   35       1
    38   20   36       1
    39   20   37       1
@<TRIPOS>SUBSTRUCTURE
     1 PP2513      1 GROUP             4 A     PP2     0 **** PP2 A 513
