@<TRIPOS>MOLECULE
3qg2_CP6_1_ligand
   31    32     1     0     0
SMALL
NO_CHARGES


@<TRIPOS>ATOM
     1 N1          30.0200     4.0570    56.4670 N.ar         1 CP6609   0.0000
     2 C2          29.4440     4.9470    55.5330 C.ar         1 CP6609   0.0000
     3 C3          29.6490     4.1110    57.8010 C.ar         1 CP6609   0.0000
     4 C4          28.6290     5.1060    58.3080 C.ar         1 CP6609   0.0000
     5 C5          28.0710     6.0320    57.2110 C.ar         1 CP6609   0.0000
     6 N6          28.4820     5.9310    55.8790 N.ar         1 CP6609   1.0000
     7 C7          28.2420     5.1550    59.6930 C.ar         1 CP6609   0.0000
     8 C8          28.9060     5.9680    60.6620 C.ar         1 CP6609   0.0000
     9 C9          28.5250     5.9900    62.0450 C.ar         1 CP6609   0.0000
    10 C10         27.4040     5.1470    62.5010 C.ar         1 CP6609   0.0000
    11 C11         26.6890     4.3140    61.5780 C.ar         1 CP6609   0.0000
    12 C12         27.1030     4.3140    60.1810 C.ar         1 CP6609   0.0000
    13 N13         30.1990     3.2610    58.6870 N.pl3        1 CP6609   0.0000
    14 N14         29.8420     4.8480    54.2020 N.pl3        1 CP6609   0.0000
    15 C15         27.0460     7.0900    57.5750 C.3          1 CP6609   0.0000
    16 C16         25.5960     6.8830    57.2040 C.3          1 CP6609   0.0000
    17 CL1         27.0860     5.2570    64.1190 Cl           1 CP6609   0.0000
    18 H1          29.6668     6.5448    60.3644 H            1 CP6609   0.0000
    19 H2          29.0152     6.5718    62.6941 H            1 CP6609   0.0000
    20 H3          25.9249     3.7470    61.8858 H            1 CP6609   0.0000
    21 H4          26.6124     3.7357    59.5292 H            1 CP6609   0.0000
    22 H5          29.9313     3.2999    59.6497 H            1 CP6609   0.0000
    23 H6          30.8755     2.5903    58.3828 H            1 CP6609   0.0000
    24 H7          29.4528     5.4635    53.5166 H            1 CP6609   0.0000
    25 H8          30.5169     4.1614    53.9317 H            1 CP6609   0.0000
    26 H9          27.3390     7.9406    57.1384 H            1 CP6609   0.0000
    27 H10         27.0792     7.1968    58.5687 H            1 CP6609   0.0000
    28 H11         25.0575     7.6667    57.5137 H            1 CP6609   0.0000
    29 H12         25.5153     6.7946    56.2112 H            1 CP6609   0.0000
    30 H13         25.2555     6.0508    57.6416 H            1 CP6609   0.0000
    31 H14         28.1049     6.5412    55.1823 H            1 CP6609   0.0000
@<TRIPOS>BOND
     1    1    2      ar
     2    1    3      ar
     3    2    6      ar
     4    2   14       1
     5    3    4      ar
     6    3   13       1
     7    4    5      ar
     8    4    7       1
     9    5    6      ar
    10    5   15       1
    11    7    8      ar
    12    7   12      ar
    13    8    9      ar
    14    9   10      ar
    15   10   11      ar
    16   10   17       1
    17   11   12      ar
    18   15   16       1
    19    8   18       1
    20    9   19       1
    21   11   20       1
    22   12   21       1
    23   13   22       1
    24   13   23       1
    25   14   24       1
    26   14   25       1
    27   15   26       1
    28   15   27       1
    29   16   28       1
    30   16   29       1
    31   16   30       1
    32    6   31       1
@<TRIPOS>SUBSTRUCTURE
     1 CP6609      1 GROUP             4 A     CP6     0 **** CP6 A 609
