@<TRIPOS>MOLECULE
1g5q_ASP_SER_TYR_THR_CYS_2_ligand
   72    72     5     0     0
SMALL
NO_CHARGES


@<TRIPOS>ATOM
     1 N          221.6160    74.2480    50.4770 N.4          1 ASP401   1.0000
     2 CA         222.4940    73.4310    49.5890 C.3          1 ASP401   0.0000
     3 C          223.1400    74.3340    48.5290 C.2          1 ASP401   0.0000
     4 O          222.4440    75.0030    47.7610 O.2          1 ASP401   0.0000
     5 CB         221.6630    72.3220    48.9190 C.3          1 ASP401   0.0000
     6 CG         222.5260    71.2450    48.2640 C.2          1 ASP401   0.0000
     7 OD1        221.9580    70.2810    47.7030 O.co2        1 ASP401   0.0000
     8 OD2        223.7680    71.3560    48.3080 O.co2        1 ASP401  -1.0000
     9 H1         222.1580    74.9676    50.9110 H            1 ASP401   0.0000
    10 H2         220.8857    74.6624    49.9339 H            1 ASP401   0.0000
    11 HA         223.2140    73.0101    50.1408 H            1 ASP401   0.0000
    12 HB1        221.0839    72.7371    48.2173 H            1 ASP401   0.0000
    13 HB2        221.0875    71.8907    49.6139 H            1 ASP401   0.0000
    14 N          224.4730    74.3590    48.5040 N.am         2 SER402   0.0000
    15 CA         225.2180    75.1710    47.5440 C.3          2 SER402   0.0000
    16 C          225.2990    74.4570    46.2010 C.2          2 SER402   0.0000
    17 O          225.2470    73.2290    46.1370 O.2          2 SER402   0.0000
    18 CB         226.6420    75.4390    48.0470 C.3          2 SER402   0.0000
    19 OG         226.6430    76.1720    49.2560 O.3          2 SER402   0.0000
    20 H6         224.9795    73.8039    49.1638 H            2 SER402   0.0000
    21 H7         224.7464    76.0442    47.4207 H            2 SER402   0.0000
    22 H8         227.1379    75.9600    47.3523 H            2 SER402   0.0000
    23 H9         227.1017    74.5640    48.1987 H            2 SER402   0.0000
    24 HG         225.7007    76.3631    49.5308 H            2 SER402   0.0000
    25 N          225.4310    75.2330    45.1320 N.am         3 TYR403   0.0000
    26 CA         225.5250    74.6700    43.7930 C.3          3 TYR403   0.0000
    27 C          226.8250    75.0750    43.1200 C.2          3 TYR403   0.0000
    28 O          227.4840    76.0360    43.5230 O.2          3 TYR403   0.0000
    29 CB         224.3330    75.1130    42.9370 C.3          3 TYR403   0.0000
    30 CG         223.0030    74.5950    43.4350 C.ar         3 TYR403   0.0000
    31 CD1        221.9340    75.4600    43.6520 C.ar         3 TYR403   0.0000
    32 CD2        222.8170    73.2400    43.7000 C.ar         3 TYR403   0.0000
    33 CE1        220.7130    74.9890    44.1250 C.ar         3 TYR403   0.0000
    34 CE2        221.6010    72.7600    44.1700 C.ar         3 TYR403   0.0000
    35 CZ         220.5560    73.6400    44.3810 C.ar         3 TYR403   0.0000
    36 OH         219.3550    73.1710    44.8550 O.3          3 TYR403   0.0000
    37 H11        225.4666    76.2255    45.2492 H            3 TYR403   0.0000
    38 H12        225.5061    73.6730    43.8681 H            3 TYR403   0.0000
    39 H13        224.4726    74.7800    42.0045 H            3 TYR403   0.0000
    40 H14        224.3012    76.1125    42.9328 H            3 TYR403   0.0000
    41 HD1        222.0454    76.4360    43.4649 H            3 TYR403   0.0000
    42 HD2        223.5719    72.6018    43.5493 H            3 TYR403   0.0000
    43 HE1        219.9544    75.6222    44.2786 H            3 TYR403   0.0000
    44 HE2        221.4824    71.7843    44.3545 H            3 TYR403   0.0000
    45 HH         219.2376    72.1956    45.0414 H            3 TYR403   0.0000
    46 N          227.1790    74.3190    42.0900 N.am         4 THR404   0.0000
    47 CA         228.3930    74.5380    41.3210 C.3          4 THR404   0.0000
    48 C          228.1350    74.0130    39.9090 C.2          4 THR404   0.0000
    49 O          227.4500    73.0040    39.7330 O.2          4 THR404   0.0000
    50 CB         229.5840    73.7690    41.9560 C.3          4 THR404   0.0000
    51 OG1        230.0120    74.4410    43.1470 O.3          4 THR404   0.0000
    52 CG2        230.7460    73.6740    40.9910 C.3          4 THR404   0.0000
    53 H20        226.5814    73.5608    41.8293 H            4 THR404   0.0000
    54 H21        228.6006    75.5156    41.2864 H            4 THR404   0.0000
    55 HB         229.2838    72.8454    42.1945 H            4 THR404   0.0000
    56 HG1        229.4446    75.2510    43.2949 H            4 THR404   0.0000
    57 HG21       231.4979    73.1758    41.4227 H            4 THR404   0.0000
    58 HG22       230.4553    73.1895    40.1659 H            4 THR404   0.0000
    59 HG23       231.0525    74.5940    40.7468 H            4 THR404   0.0000
    60 N          228.6660    74.6980    38.9040 N.am         5 CYS405   0.0000
    61 CA         228.4740    74.2640    37.5260 C.3          5 CYS405   0.0000
    62 C          229.1210    72.9150    37.2280 C.2          5 CYS405   0.0000
    63 O          228.4120    72.0520    36.6730 O.co2        5 CYS405   0.0000
    64 CB         229.0040    75.3160    36.5560 C.3          5 CYS405   0.0000
    65 SG         227.8290    76.6330    36.2360 S.3          5 CYS405   0.0000
    66 OXT        230.3190    72.7390    37.5400 O.co2        5 CYS405  -1.0000
    67 H27        229.2030    75.5199    39.0940 H            5 CYS405   0.0000
    68 H28        227.4907    74.1721    37.3692 H            5 CYS405   0.0000
    69 H29        229.2238    74.8680    35.6894 H            5 CYS405   0.0000
    70 H30        229.8339    75.7171    36.9437 H            5 CYS405   0.0000
    71 H31        228.2298    77.2893    35.5967 H            5 CYS405   0.0000
    72 H32        221.2159    73.6615    51.1812 H            5 CYS405   0.0000
@<TRIPOS>BOND
     1    1    2       1
     2    2    5       1
     3    2    3       1
     4    5    6       1
     5    6    7      ar
     6    6    8      ar
     7    3    4       2
     8    1    9       1
     9    1   10       1
    10    2   11       1
    11    3   14      am
    12    5   12       1
    13    5   13       1
    14   14   15       1
    15   15   18       1
    16   15   16       1
    17   18   19       1
    18   16   17       2
    19   19   24       1
    20   14   20       1
    21   15   21       1
    22   16   25      am
    23   18   22       1
    24   18   23       1
    25   25   26       1
    26   26   29       1
    27   26   27       1
    28   29   30       1
    29   30   31      ar
    30   30   32      ar
    31   31   33      ar
    32   33   35      ar
    33   35   36       1
    34   35   34      ar
    35   34   32      ar
    36   27   28       2
    37   36   45       1
    38   25   37       1
    39   26   38       1
    40   27   46      am
    41   29   39       1
    42   29   40       1
    43   31   41       1
    44   32   42       1
    45   33   43       1
    46   34   44       1
    47   46   47       1
    48   47   50       1
    49   47   48       1
    50   50   52       1
    51   50   51       1
    52   48   49       2
    53   52   59       1
    54   46   53       1
    55   47   54       1
    56   48   60      am
    57   50   55       1
    58   51   56       1
    59   52   57       1
    60   52   58       1
    61   60   61       1
    62   61   64       1
    63   61   62       1
    64   64   65       1
    65   62   63      ar
    66   62   66      ar
    67   65   71       1
    68   60   67       1
    69   61   68       1
    70   64   69       1
    71   64   70       1
    72    1   72       1
@<TRIPOS>SUBSTRUCTURE
     1 ASP401      1 RESIDUE           4 N     ASP     0 **** ASP N 401
     2 SER402     14 RESIDUE           4 N     SER     0 **** SER N 402
     3 TYR403     25 RESIDUE           4 N     TYR     0 **** TYR N 403
     4 THR404     46 RESIDUE           4 N     THR     0 **** THR N 404
     5 CYS405     60 RESIDUE           4 N     CYS     0 **** CYS N 405
