@<TRIPOS>MOLECULE
3lsy_FT0_2_ligand
   26    27     1     0     0
SMALL
NO_CHARGES


@<TRIPOS>ATOM
     1 C1          11.5980    98.9330    26.3760 C.ar         1 FT0602   0.0000
     2 C2          12.9120    98.9200    25.9540 C.ar         1 FT0602   0.0000
     3 C3          13.4490    97.7740    25.3480 C.ar         1 FT0602   0.0000
     4 C4          12.6450    96.6430    25.1640 C.ar         1 FT0602   0.0000
     5 C5          11.3120    96.6810    25.5940 C.ar         1 FT0602   0.0000
     6 C6          10.7850    97.8190    26.2040 C.ar         1 FT0602   0.0000
     7 O7          11.1130   100.0700    26.9590 O.3          1 FT0602   0.0000
     8 C8          10.5470   101.0710    26.2090 C.ar         1 FT0602   0.0000
     9 C9           9.6850   101.9830    26.8300 C.ar         1 FT0602   0.0000
    10 C10          9.0990   103.0100    26.0800 C.ar         1 FT0602   0.0000
    11 C11          9.3640   103.1290    24.7090 C.ar         1 FT0602   0.0000
    12 C12         10.2190   102.2120    24.0910 C.ar         1 FT0602   0.0000
    13 C13         10.8120   101.1880    24.8370 C.ar         1 FT0602   0.0000
    14 C14         13.1930    95.4100    24.5160 C.2          1 FT0602   0.0000
    15 O15         13.0780    94.2990    25.0290 O.2          1 FT0602   0.0000
    16 O16         13.6550   100.0520    26.1460 O.3          1 FT0602   0.0000
    17 H1          14.4031    97.7653    25.0485 H            1 FT0602   0.0000
    18 H2          10.7292    95.8793    25.4614 H            1 FT0602   0.0000
    19 H3           9.8343    97.8333    26.5137 H            1 FT0602   0.0000
    20 H4           9.4883   101.9011    27.8070 H            1 FT0602   0.0000
    21 H5           8.4870   103.6632    26.5258 H            1 FT0602   0.0000
    22 H6           8.9446   103.8644    24.1768 H            1 FT0602   0.0000
    23 H7          10.4075   102.2883    23.1119 H            1 FT0602   0.0000
    24 H8          11.4266   100.5376    24.3906 H            1 FT0602   0.0000
    25 H9          13.6669    95.4927    23.6393 H            1 FT0602   0.0000
    26 H10         13.2426   100.8532    26.5797 H            1 FT0602   0.0000
@<TRIPOS>BOND
     1    1    2      ar
     2    1    6      ar
     3    1    7       1
     4    2    3      ar
     5    2   16       1
     6    3    4      ar
     7    4    5      ar
     8    4   14       1
     9    5    6      ar
    10    7    8       1
    11    8    9      ar
    12    8   13      ar
    13    9   10      ar
    14   10   11      ar
    15   11   12      ar
    16   12   13      ar
    17   14   15       2
    18    3   17       1
    19    5   18       1
    20    6   19       1
    21    9   20       1
    22   10   21       1
    23   11   22       1
    24   12   23       1
    25   13   24       1
    26   14   25       1
    27   16   26       1
@<TRIPOS>SUBSTRUCTURE
     1 FT0602      1 GROUP             4 B     FT0     0 **** FT0 B 602
