@<TRIPOS>MOLECULE
3qbt_GNP_3_ligand
   45    47     1     0     0
SMALL
NO_CHARGES


@<TRIPOS>ATOM
     1 PG          49.7310    29.1190    65.7060 P.3          1 GNP200   0.0000
     2 O1G         48.6190    29.9350    66.2950 O.co2        1 GNP200   0.0000
     3 O2G         49.9620    29.6300    64.2670 O.co2        1 GNP200  -1.0000
     4 O3G         49.3020    27.5840    65.6990 O.co2        1 GNP200  -1.0000
     5 N3B         51.0580    29.2120    66.6830 N.3          1 GNP200   0.0000
     6 PB          52.4310    28.4730    66.3380 P.3          1 GNP200   0.0000
     7 O1B         52.3990    27.0890    66.8170 O.co2        1 GNP200   0.0000
     8 O2B         52.7640    28.7100    64.9200 O.co2        1 GNP200  -1.0000
     9 O3A         53.4490    29.2370    67.2850 O.3          1 GNP200   0.0000
    10 PA          54.5080    30.3550    66.7660 P.3          1 GNP200   0.0000
    11 O1A         55.5120    29.6980    65.9910 O.co2        1 GNP200   0.0000
    12 O2A         53.7430    31.4750    66.2350 O.co2        1 GNP200  -1.0000
    13 O5'         55.1710    30.7470    68.1900 O.3          1 GNP200   0.0000
    14 C5'         54.4380    31.2420    69.2940 C.3          1 GNP200   0.0000
    15 C4'         55.3530    31.9850    70.3260 C.3          1 GNP200   0.0000
    16 O4'         56.3790    31.0740    70.7430 O.3          1 GNP200   0.0000
    17 C3'         56.0740    33.1180    69.5960 C.3          1 GNP200   0.0000
    18 O3'         56.2450    34.2520    70.4980 O.3          1 GNP200   0.0000
    19 C2'         57.4380    32.5620    69.2330 C.3          1 GNP200   0.0000
    20 O2'         58.4180    33.6330    69.3060 O.3          1 GNP200   0.0000
    21 C1'         57.6840    31.6400    70.3980 C.3          1 GNP200   0.0000
    22 N9          58.5990    30.5320    70.1810 N.pl3        1 GNP200   0.0000
    23 C8          58.4750    29.6120    69.2320 C.2          1 GNP200   0.0000
    24 N7          59.4580    28.7390    69.3500 N.2          1 GNP200   0.0000
    25 C5          60.2110    29.0840    70.3980 C.2          1 GNP200   0.0000
    26 C6          61.3400    28.5330    70.9760 C.2          1 GNP200   0.0000
    27 O6          61.8610    27.5090    70.5350 O.2          1 GNP200   0.0000
    28 N1          61.8990    29.1670    72.0880 N.pl3        1 GNP200   0.0000
    29 C2          61.2970    30.3210    72.6090 C.2          1 GNP200   0.0000
    30 N2          61.8370    30.9120    73.7020 N.pl3        1 GNP200   0.0000
    31 N3          60.1910    30.8210    72.0370 N.2          1 GNP200   0.0000
    32 C4          59.6560    30.2380    70.9350 C.2          1 GNP200   0.0000
    33 H3B         51.2779    30.1844    66.7608 H            1 GNP200   0.0000
    34 H5'1        53.9908    30.4748    69.7538 H            1 GNP200   0.0000
    35 H5'2        53.7446    31.8805    68.9601 H            1 GNP200   0.0000
    36 H4'         54.8264    32.3263    71.1046 H            1 GNP200   0.0000
    37 H3'         55.5708    33.3892    68.7755 H            1 GNP200   0.0000
    38 H6          55.8513    34.0306    71.3902 H            1 GNP200   0.0000
    39 H2'         57.4438    32.0877    68.3526 H            1 GNP200   0.0000
    40 H8          58.1340    34.2982    69.9966 H            1 GNP200   0.0000
    41 H1'         58.0135    32.1814    71.1715 H            1 GNP200   0.0000
    42 H10         57.7537    29.5848    68.5399 H            1 GNP200   0.0000
    43 H11         62.7266    28.7987    72.5115 H            1 GNP200   0.0000
    44 H12         61.4175    31.7356    74.0837 H            1 GNP200   0.0000
    45 H13         62.6551    30.5246    74.1271 H            1 GNP200   0.0000
@<TRIPOS>BOND
     1    1    2      ar
     2    1    3      ar
     3    1    4      ar
     4    1    5       1
     5    5    6       1
     6    6    7      ar
     7    6    8      ar
     8    6    9       1
     9    9   10       1
    10   10   11      ar
    11   10   12      ar
    12   10   13       1
    13   13   14       1
    14   14   15       1
    15   15   16       1
    16   15   17       1
    17   16   21       1
    18   17   18       1
    19   17   19       1
    20   19   20       1
    21   19   21       1
    22   21   22       1
    23   22   23       1
    24   22   32       1
    25   23   24       2
    26   24   25       1
    27   25   26       1
    28   25   32       2
    29   26   27       2
    30   26   28       1
    31   28   29       1
    32   29   30       1
    33   29   31       2
    34   31   32       1
    35   30   45       1
    36   30   44       1
    37    5   33       1
    38   28   43       1
    39   23   42       1
    40   14   34       1
    41   14   35       1
    42   15   36       1
    43   17   37       1
    44   18   38       1
    45   19   39       1
    46   20   40       1
    47   21   41       1
@<TRIPOS>SUBSTRUCTURE
     1 GNP200      1 GROUP             4 E     GNP     0 **** GNP E 200
