@<TRIPOS>MOLECULE
3v1m_HPK_1_ligand
   25    25     1     0     0
SMALL
NO_CHARGES


@<TRIPOS>ATOM
     1 CB3          4.0110    14.1700   -15.3780 C.ar         1 HPK288   0.0000
     2 CB4          3.8200    12.9200   -14.7920 C.ar         1 HPK288   0.0000
     3 CB5          2.6050    12.2650   -14.9540 C.ar         1 HPK288   0.0000
     4 CB6          1.5790    12.8520   -15.6890 C.ar         1 HPK288   0.0000
     5 CB1          1.7840    14.0880   -16.2870 C.ar         1 HPK288   0.0000
     6 CB2          2.9930    14.7540   -16.1140 C.ar         1 HPK288   0.0000
     7 CA6          0.6940    14.7510   -17.0630 C.2          1 HPK288   0.0000
     8 OA4          0.5810    16.0580   -16.8940 O.3          1 HPK288   0.0000
     9 CA5         -0.1600    14.0650   -17.8500 C.2          1 HPK288   0.0000
    10 CA4         -1.2230    14.7590   -18.5920 C.2          1 HPK288   0.0000
    11 CA3         -1.9940    14.1020   -19.4560 C.2          1 HPK288   0.0000
    12 CA2         -3.0690    14.7260   -20.2830 C.2          1 HPK288   0.0000
    13 OA3         -3.6420    14.0240   -21.0930 O.2          1 HPK288   0.0000
    14 CA1         -3.4890    16.1280   -20.2370 C.2          1 HPK288   0.0000
    15 OA2         -2.6750    17.0160   -19.9490 O.co2        1 HPK288   0.0000
    16 OA1         -4.6800    16.4220   -20.5160 O.co2        1 HPK288  -1.0000
    17 HB3          4.8836    14.6457   -15.2671 H            1 HPK288   0.0000
    18 HB4          4.5524    12.4971   -14.2584 H            1 HPK288   0.0000
    19 HB5          2.4669    11.3655   -14.5395 H            1 HPK288   0.0000
    20 HB6          0.6994    12.3862   -15.7857 H            1 HPK288   0.0000
    21 HB2          3.1276    15.6569   -16.5221 H            1 HPK288   0.0000
    22 HA4          1.2045    16.5381   -16.2770 H            1 HPK288   0.0000
    23 HA5         -0.0691    13.0723   -17.9298 H            1 HPK288   0.0000
    24 H8          -1.3688    15.7374   -18.4457 H            1 HPK288   0.0000
    25 HA3         -1.8420    13.1190   -19.5585 H            1 HPK288   0.0000
@<TRIPOS>BOND
     1    1    2      ar
     2    1    6      ar
     3    2    3      ar
     4    3    4      ar
     5    4    5      ar
     6    5    6      ar
     7    5    7       1
     8    7    8       1
     9    7    9       2
    10    9   10       1
    11   10   11       2
    12   11   12       1
    13   12   13       2
    14   12   14       1
    15   14   15      ar
    16   14   16      ar
    17    1   17       1
    18    2   18       1
    19    3   19       1
    20    4   20       1
    21    6   21       1
    22    8   22       1
    23    9   23       1
    24   10   24       1
    25   11   25       1
@<TRIPOS>SUBSTRUCTURE
     1 HPK288      1 GROUP             4 A     HPK     0 **** HPK A 288
