@<TRIPOS>MOLECULE
3p0f_BAU_1_ligand
   36    37     1     0     0
SMALL
NO_CHARGES


@<TRIPOS>ATOM
     1 OAC         10.8370    -1.8810    55.8140 O.3          1 BAU400   0.0000
     2 CAJ         11.2030    -2.9360    54.8650 C.3          1 BAU400   0.0000
     3 CAK         12.7280    -3.1990    54.7600 C.3          1 BAU400   0.0000
     4 OAO         13.2600    -1.9830    54.4850 O.3          1 BAU400   0.0000
     5 CAM         14.7170    -1.9160    54.5700 C.3          1 BAU400   0.0000
     6 NAT         15.1990    -2.1360    55.9060 N.pl3        1 BAU400   0.0000
     7 CAS         15.8030    -3.3580    56.2290 C.2          1 BAU400   0.0000
     8 OAB         15.9560    -4.2320    55.3920 O.2          1 BAU400   0.0000
     9 NAN         16.2290    -3.5900    57.5330 N.pl3        1 BAU400   0.0000
    10 CAR         16.0240    -2.6690    58.5520 C.2          1 BAU400   0.0000
    11 OAA         16.4480    -2.9140    59.6950 O.2          1 BAU400   0.0000
    12 CAI         14.9800    -1.2030    56.9200 C.2          1 BAU400   0.0000
    13 CAQ         15.4070    -1.4480    58.2370 C.2          1 BAU400   0.0000
    14 CAL         15.1350    -0.3770    59.3040 C.3          1 BAU400   0.0000
    15 CG          13.8400    -0.7600    60.0770 C.ar         1 BAU400   0.0000
    16 CD2         12.6030    -0.6520    59.4140 C.ar         1 BAU400   0.0000
    17 CE2         11.4110    -0.9770    60.0820 C.ar         1 BAU400   0.0000
    18 CZ          11.4600    -1.4160    61.3990 C.ar         1 BAU400   0.0000
    19 CE1         12.6730    -1.5200    62.0740 C.ar         1 BAU400   0.0000
    20 CD1         13.8770    -1.1920    61.4010 C.ar         1 BAU400   0.0000
    21 HAC          9.8430    -1.7720    55.8243 H            1 BAU400   0.0000
    22 HAJ1        10.8674    -2.6736    53.9603 H            1 BAU400   0.0000
    23 HAJ2        10.7580    -3.7841    55.1526 H            1 BAU400   0.0000
    24 HAK1        12.9258    -3.8467    54.0242 H            1 BAU400   0.0000
    25 HAK2        13.0862    -3.5553    55.6230 H            1 BAU400   0.0000
    26 HAM1        15.0151    -1.0111    54.2661 H            1 BAU400   0.0000
    27 HAM2        15.1061    -2.6143    53.9692 H            1 BAU400   0.0000
    28 HAN         16.6980    -4.4478    57.7433 H            1 BAU400   0.0000
    29 HAI         14.5115    -0.3457    56.7065 H            1 BAU400   0.0000
    30 HAL1        15.0136     0.5129    58.8642 H            1 BAU400   0.0000
    31 HAL2        15.9055    -0.3322    59.9398 H            1 BAU400   0.0000
    32 HD2         12.5728    -0.3426    58.4635 H            1 BAU400   0.0000
    33 HE2         10.5322    -0.8929    59.6123 H            1 BAU400   0.0000
    34 HZ          10.6119    -1.6608    61.8689 H            1 BAU400   0.0000
    35 HE1         12.6950    -1.8238    63.0265 H            1 BAU400   0.0000
    36 HD1         14.7530    -1.2708    61.8768 H            1 BAU400   0.0000
@<TRIPOS>BOND
     1    1    2       1
     2    2    3       1
     3    3    4       1
     4    4    5       1
     5    5    6       1
     6    6    7       1
     7    6   12       1
     8    7    8       2
     9    7    9       1
    10    9   10       1
    11   10   11       2
    12   10   13       1
    13   12   13       2
    14   13   14       1
    15   14   15       1
    16   15   16      ar
    17   15   20      ar
    18   16   17      ar
    19   17   18      ar
    20   18   19      ar
    21   19   20      ar
    22    1   21       1
    23    2   22       1
    24    2   23       1
    25    3   24       1
    26    3   25       1
    27    5   26       1
    28    5   27       1
    29    9   28       1
    30   12   29       1
    31   14   30       1
    32   14   31       1
    33   16   32       1
    34   17   33       1
    35   18   34       1
    36   19   35       1
    37   20   36       1
@<TRIPOS>SUBSTRUCTURE
     1 BAU400      1 GROUP             4 A     BAU     0 **** BAU A 400
