@<TRIPOS>MOLECULE
1c4v_IH2_1_ligand
   74    78     1     0     0
SMALL
NO_CHARGES


@<TRIPOS>ATOM
     1 N9          15.6250   -11.6940    20.2060 N.am         1 IH2370   0.0000
     2 C1          14.1860   -11.5310    19.5180 C.3          1 IH2370   0.0000
     3 N10         10.2180   -12.9830    24.1760 N.pl3        1 IH2370   1.0000
     4 N11         10.6020   -10.7300    24.4190 N.pl3        1 IH2370   0.0000
     5 C8          10.8990   -11.9170    23.8410 C.cat        1 IH2370   0.0000
     6 C2          13.1850   -11.6740    20.4640 C.3          1 IH2370   0.0000
     7 C7          13.7120   -12.7260    21.4900 C.3          1 IH2370   0.0000
     8 C6          12.5460   -13.0470    22.2850 C.3          1 IH2370   0.0000
     9 C5          11.8540   -11.8170    22.8470 C.2          1 IH2370   0.0000
    10 C4          12.1720   -10.5150    22.2700 C.2          1 IH2370   0.0000
    11 C3          12.9000   -10.2960    21.0900 C.3          1 IH2370   0.0000
    12 C17         19.7730   -14.6910    20.1140 C.3          1 IH2370   0.0000
    13 N18         19.0050   -14.8790    21.2240 N.pl3        1 IH2370   0.0000
    14 C20         18.7480   -16.0820    21.7820 C.2          1 IH2370   0.0000
    15 O20         19.1860   -17.2120    21.6330 O.2          1 IH2370   0.0000
    16 N21         17.8360   -15.8460    22.6800 N.pl3        1 IH2370   0.0000
    17 C22         17.4990   -14.5170    22.6330 C.2          1 IH2370   0.0000
    18 O22         16.7080   -14.0560    23.3090 O.2          1 IH2370   0.0000
    19 N19         18.2500   -13.9370    21.7670 N.pl3        1 IH2370   0.0000
    20 C13         17.8250   -12.8060    20.9100 C.3          1 IH2370   0.0000
    21 C14         18.8360   -12.4240    20.0590 C.2          1 IH2370   0.0000
    22 C15         19.5620   -13.2920    19.4610 C.2          1 IH2370   0.0000
    23 C12         16.3400   -12.8150    20.3230 C.2          1 IH2370   0.0000
    24 C16         20.5540   -12.7780    18.6040 C.3          1 IH2370   0.0000
    25 O12         15.7340   -14.0720    20.0910 O.2          1 IH2370   0.0000
    26 C23         17.3950   -16.8760    23.5280 C.3          1 IH2370   0.0000
    27 C24         18.0830   -16.5670    24.9160 C.3          1 IH2370   0.0000
    28 C28         22.1980   -14.6010    25.6620 C.ar         1 IH2370   0.0000
    29 C29         21.1550   -13.9530    26.0430 C.ar         1 IH2370   0.0000
    30 C30         19.8110   -14.5350    25.7810 C.ar         1 IH2370   0.0000
    31 C25         19.4720   -15.8040    25.1090 C.ar         1 IH2370   0.0000
    32 C26         20.5370   -16.4480    24.7200 C.ar         1 IH2370   0.0000
    33 C27         21.8850   -15.8620    24.9490 C.ar         1 IH2370   0.0000
    34 C34         17.7030   -19.2430    28.1470 C.ar         1 IH2370   0.0000
    35 C35         18.5600   -19.6230    26.9910 C.ar         1 IH2370   0.0000
    36 C36         18.5770   -18.7990    25.9180 C.ar         1 IH2370   0.0000
    37 C31         17.7950   -17.5990    25.9330 C.ar         1 IH2370   0.0000
    38 C32         16.9110   -17.2940    27.0850 C.ar         1 IH2370   0.0000
    39 C33         16.8870   -18.1090    28.2000 C.ar         1 IH2370   0.0000
    40 H1          16.0315   -10.8647    20.5896 H            1 IH2370   0.0000
    41 H2          14.0760   -12.2309    18.8123 H            1 IH2370   0.0000
    42 H3          14.1198   -10.6243    19.1014 H            1 IH2370   0.0000
    43 H4          10.4300   -13.8647    23.7544 H            1 IH2370   0.0000
    44 H5           9.4856   -12.9160    24.8536 H            1 IH2370   0.0000
    45 H6          11.1167    -9.9097    24.1696 H            1 IH2370   0.0000
    46 H7          12.3560   -12.0204    20.0249 H            1 IH2370   0.0000
    47 H8          14.4355   -12.3364    22.0599 H            1 IH2370   0.0000
    48 H9          14.0582   -13.5386    21.0211 H            1 IH2370   0.0000
    49 H10         12.8302   -13.6289    23.0470 H            1 IH2370   0.0000
    50 H11         11.8956   -13.5440    21.7106 H            1 IH2370   0.0000
    51 H12         11.8421    -9.7072    22.7585 H            1 IH2370   0.0000
    52 H13         12.3649    -9.7367    20.4568 H            1 IH2370   0.0000
    53 H14         13.7602    -9.8312    21.3001 H            1 IH2370   0.0000
    54 H15         19.5412   -15.3949    19.4425 H            1 IH2370   0.0000
    55 H16         20.7348   -14.7808    20.3724 H            1 IH2370   0.0000
    56 H17         17.7936   -12.0460    21.5592 H            1 IH2370   0.0000
    57 H18         19.0068   -11.4508    19.9048 H            1 IH2370   0.0000
    58 H19         20.2719   -11.8790    18.2689 H            1 IH2370   0.0000
    59 H20         21.4152   -12.6918    19.1049 H            1 IH2370   0.0000
    60 H21         20.6794   -13.3981    17.8296 H            1 IH2370   0.0000
    61 H22         17.6844   -17.7680    23.1808 H            1 IH2370   0.0000
    62 H23         16.3990   -16.8596    23.6157 H            1 IH2370   0.0000
    63 H24         17.4650   -15.8510    25.2407 H            1 IH2370   0.0000
    64 H25         23.1314   -14.2844    25.8307 H            1 IH2370   0.0000
    65 H26         21.2456   -13.0722    26.5078 H            1 IH2370   0.0000
    66 H27         19.0341   -13.9941    26.1032 H            1 IH2370   0.0000
    67 H28         20.4476   -17.3355    24.2679 H            1 IH2370   0.0000
    68 H29         22.6626   -16.3732    24.5830 H            1 IH2370   0.0000
    69 H30         17.7115   -19.8442    28.9461 H            1 IH2370   0.0000
    70 H31         19.1059   -20.4607    27.0069 H            1 IH2370   0.0000
    71 H32         19.1328   -19.0266    25.1184 H            1 IH2370   0.0000
    72 H33         16.3232   -16.4856    27.0537 H            1 IH2370   0.0000
    73 H34         16.3202   -17.9005    28.9970 H            1 IH2370   0.0000
    74 H35          9.8678   -10.6731    25.0955 H            1 IH2370   0.0000
@<TRIPOS>BOND
     1    1    2       1
     2    1   23      am
     3    2    6       1
     4    3    5      ar
     5    4    5      ar
     6    5    9       1
     7    6    7       1
     8    6   11       1
     9    7    8       1
    10    8    9       1
    11    9   10       2
    12   10   11       1
    13   12   13       1
    14   12   22       1
    15   13   14       1
    16   13   19       1
    17   14   15       2
    18   14   16       1
    19   16   17       1
    20   16   26       1
    21   17   18       2
    22   17   19       1
    23   19   20       1
    24   20   21       1
    25   20   23       1
    26   21   22       2
    27   22   24       1
    28   23   25       2
    29   26   27       1
    30   27   31       1
    31   27   37       1
    32   28   29      ar
    33   28   33      ar
    34   29   30      ar
    35   30   31      ar
    36   31   32      ar
    37   32   33      ar
    38   34   35      ar
    39   34   39      ar
    40   35   36      ar
    41   36   37      ar
    42   37   38      ar
    43   38   39      ar
    44    1   40       1
    45    2   41       1
    46    2   42       1
    47    3   43       1
    48    3   44       1
    49    4   45       1
    50    6   46       1
    51    7   47       1
    52    7   48       1
    53    8   49       1
    54    8   50       1
    55   10   51       1
    56   11   52       1
    57   11   53       1
    58   12   54       1
    59   12   55       1
    60   20   56       1
    61   21   57       1
    62   24   58       1
    63   24   59       1
    64   24   60       1
    65   26   61       1
    66   26   62       1
    67   27   63       1
    68   28   64       1
    69   29   65       1
    70   30   66       1
    71   32   67       1
    72   33   68       1
    73   34   69       1
    74   35   70       1
    75   36   71       1
    76   38   72       1
    77   39   73       1
    78    4   74       1
@<TRIPOS>SUBSTRUCTURE
     1 IH2370      1 GROUP             4 2     IH2     0 **** IH2 2 370
