@<TRIPOS>MOLECULE
1j7k_ATP_1_ligand
   43    45     1     0     0
SMALL
NO_CHARGES


@<TRIPOS>ATOM
     1 PG          65.6880   -19.0860   -25.8400 P.3          1 ATP2060   0.0000
     2 O1G         67.1330   -19.1660   -25.8050 O.co2        1 ATP2060   0.0000
     3 O2G         65.0960   -18.9100   -24.5100 O.co2        1 ATP2060  -1.0000
     4 O3G         65.2410   -18.0840   -26.9120 O.co2        1 ATP2060  -1.0000
     5 PB          64.4610   -21.0860   -27.6470 P.3          1 ATP2060   0.0000
     6 O1B         65.3690   -20.8350   -28.8090 O.co2        1 ATP2060   0.0000
     7 O2B         63.0810   -20.5660   -27.7140 O.co2        1 ATP2060  -1.0000
     8 O3B         65.2380   -20.5580   -26.3060 O.3          1 ATP2060   0.0000
     9 PA          64.5650   -23.8640   -28.3630 P.3          1 ATP2060   0.0000
    10 O1A         63.6970   -23.5210   -29.4910 O.co2        1 ATP2060   0.0000
    11 O2A         65.9640   -24.2820   -28.6270 O.co2        1 ATP2060  -1.0000
    12 O3A         64.4850   -22.6140   -27.3960 O.3          1 ATP2060   0.0000
    13 O5'         63.8360   -24.9710   -27.5200 O.3          1 ATP2060   0.0000
    14 C5'         62.4130   -24.9760   -27.3220 C.3          1 ATP2060   0.0000
    15 C4'         62.1130   -24.5280   -25.9210 C.3          1 ATP2060   0.0000
    16 O4'         60.6560   -24.5450   -25.8150 O.3          1 ATP2060   0.0000
    17 C3'         62.6460   -25.4540   -24.8330 C.3          1 ATP2060   0.0000
    18 O3'         63.1230   -24.6140   -23.7550 O.3          1 ATP2060   0.0000
    19 C2'         61.4420   -26.2540   -24.4760 C.3          1 ATP2060   0.0000
    20 O2'         61.4250   -26.7210   -23.1400 O.3          1 ATP2060   0.0000
    21 C1'         60.2530   -25.3260   -24.6920 C.3          1 ATP2060   0.0000
    22 N9          59.0100   -26.0740   -24.9940 N.pl3        1 ATP2060   0.0000
    23 C8          57.7890   -25.9510   -24.3900 C.2          1 ATP2060   0.0000
    24 N7          56.8610   -26.7330   -24.8400 N.2          1 ATP2060   0.0000
    25 C5          57.5210   -27.4410   -25.8350 C.ar         1 ATP2060   0.0000
    26 C6          57.0910   -28.4640   -26.7310 C.ar         1 ATP2060   0.0000
    27 N6          55.8460   -28.9150   -26.6990 N.pl3        1 ATP2060   0.0000
    28 N1          57.9910   -28.9800   -27.6180 N.ar         1 ATP2060   0.0000
    29 C2          59.2450   -28.5080   -27.6310 C.ar         1 ATP2060   0.0000
    30 N3          59.7770   -27.5530   -26.8440 N.ar         1 ATP2060   0.0000
    31 C4          58.8350   -27.0450   -25.9520 C.ar         1 ATP2060   0.0000
    32 H5'1        62.0583   -25.9005   -27.4616 H            1 ATP2060   0.0000
    33 H5'2        61.9817   -24.3517   -27.9733 H            1 ATP2060   0.0000
    34 H4'         62.4556   -23.5995   -25.7780 H            1 ATP2060   0.0000
    35 H3'         63.3767   -26.0395   -25.1841 H            1 ATP2060   0.0000
    36 H5          64.0874   -24.3957   -23.9042 H            1 ATP2060   0.0000
    37 H2'         61.3684   -27.0335   -25.0981 H            1 ATP2060   0.0000
    38 H7          60.6211   -26.3567   -22.6698 H            1 ATP2060   0.0000
    39 H1'         60.1200   -24.7407   -23.8922 H            1 ATP2060   0.0000
    40 H9          57.6241   -25.2996   -23.6494 H            1 ATP2060   0.0000
    41 H10         55.5577   -29.6326   -27.3330 H            1 ATP2060   0.0000
    42 H11         55.1943   -28.5379   -26.0409 H            1 ATP2060   0.0000
    43 H12         59.8604   -28.9138   -28.3067 H            1 ATP2060   0.0000
@<TRIPOS>BOND
     1    1    2      ar
     2    1    3      ar
     3    1    4      ar
     4    1    8       1
     5    5    6      ar
     6    5    7      ar
     7    5    8       1
     8    5   12       1
     9    9   10      ar
    10    9   11      ar
    11    9   12       1
    12    9   13       1
    13   13   14       1
    14   14   15       1
    15   15   16       1
    16   15   17       1
    17   16   21       1
    18   17   18       1
    19   17   19       1
    20   19   20       1
    21   19   21       1
    22   21   22       1
    23   22   23       1
    24   22   31       1
    25   23   24       2
    26   24   25       1
    27   25   26      ar
    28   25   31      ar
    29   26   27       1
    30   26   28      ar
    31   28   29      ar
    32   29   30      ar
    33   30   31      ar
    34   29   43       1
    35   27   42       1
    36   27   41       1
    37   23   40       1
    38   14   32       1
    39   14   33       1
    40   15   34       1
    41   17   35       1
    42   18   36       1
    43   19   37       1
    44   20   38       1
    45   21   39       1
@<TRIPOS>SUBSTRUCTURE
     1 ATP2060     1 GROUP             4 A     ATP     0 **** ATP A2060
