@<TRIPOS>MOLECULE
4rkd_KET_1_ligand
   35    35     1     0     0
SMALL
NO_CHARGES


@<TRIPOS>ATOM
     1 N1          32.5630    64.8420   163.8700 N.2          1 KET402   0.0000
     2 C2          33.1290    65.5920   164.8410 C.2          1 KET402   0.0000
     3 C2A         33.5140    64.9350   166.1410 C.3          1 KET402   0.0000
     4 C3          33.3570    66.9700   164.6610 C.2          1 KET402   0.0000
     5 O3          33.9440    67.7330   165.6340 O.2          1 KET402   0.0000
     6 C4          33.0360    67.5830   163.4520 C.2          1 KET402   0.0000
     7 C4A         33.2490    69.0370   163.2200 C.2          1 KET402   0.0000
     8 C5          32.4370    66.8120   162.4860 C.2          1 KET402   0.0000
     9 C6          32.2330    65.4440   162.7150 C.2          1 KET402   0.0000
    10 C5A         32.0580    67.5100   161.2080 C.3          1 KET402   0.0000
    11 OP4         32.3290    66.6920   160.1020 O.3          1 KET402   0.0000
    12 P           31.9360    67.2190   158.6560 P.3          1 KET402   0.0000
    13 OP1         32.7400    66.1480   158.0200 O.co2        1 KET402   0.0000
    14 OP2         30.4700    66.9680   158.4250 O.co2        1 KET402  -1.0000
    15 OP3         32.3950    68.6580   158.5630 O.co2        1 KET402  -1.0000
    16 N           32.3950    69.6170   163.9140 N.pl3        1 KET402   0.0000
    17 CA          32.0560    71.0140   164.1240 C.3          1 KET402   0.0000
    18 CB          33.0300    71.7240   165.0520 C.3          1 KET402   0.0000
    19 CG          32.1000    72.1930   166.1620 C.2          1 KET402   0.0000
    20 OD1         30.8420    72.1020   166.1000 O.co2        1 KET402   0.0000
    21 OD2         32.6140    72.6850   167.1670 O.co2        1 KET402  -1.0000
    22 C           31.7550    71.7570   162.8760 C.2          1 KET402   0.0000
    23 O           30.6200    71.5390   162.3780 O.co2        1 KET402   0.0000
    24 OXT         32.6300    72.5340   162.4370 O.co2        1 KET402  -1.0000
    25 H2A1        33.9172    65.6161   166.7522 H            1 KET402   0.0000
    26 H2A2        32.7004    64.5424   166.5699 H            1 KET402   0.0000
    27 H2A3        34.1800    64.2104   165.9639 H            1 KET402   0.0000
    28 H4A         33.9359    69.4601   162.6290 H            1 KET402   0.0000
    29 H5          31.8244    64.8927   161.9876 H            1 KET402   0.0000
    30 H5A1        32.5835    68.3570   161.1274 H            1 KET402   0.0000
    31 H5A2        31.0814    67.7242   161.2273 H            1 KET402   0.0000
    32 HA          31.1913    70.9952   164.6259 H            1 KET402   0.0000
    33 HB1         33.4733    72.4956   164.5959 H            1 KET402   0.0000
    34 HB2         33.7272    71.0969   165.3995 H            1 KET402   0.0000
    35 H11         31.8202    68.9887   164.4383 H            1 KET402   0.0000
@<TRIPOS>BOND
     1    1    2       2
     2    1    9       1
     3    2    3       1
     4    2    4       1
     5    4    5       2
     6    4    6       1
     7    6    7       2
     8    6    8       1
     9    7   16       1
    10    8    9       2
    11    8   10       1
    12   10   11       1
    13   11   12       1
    14   12   13      ar
    15   12   14      ar
    16   12   15      ar
    17   16   17       1
    18   17   18       1
    19   17   22       1
    20   18   19       1
    21   19   20      ar
    22   19   21      ar
    23   22   23      ar
    24   22   24      ar
    25    3   25       1
    26    3   26       1
    27    3   27       1
    28   18   33       1
    29    7   28       1
    30    9   29       1
    31   10   30       1
    32   10   31       1
    33   16   35       1
    34   18   34       1
    35   17   32       1
@<TRIPOS>SUBSTRUCTURE
     1 KET402      1 GROUP             4 G     KET     0 **** KET G 402
