@<TRIPOS>MOLECULE
2yk6_CDP_1_ligand
   37    38     1     0     0
SMALL
NO_CHARGES


@<TRIPOS>ATOM
     1 O3B         54.1610    43.4970     2.6240 O.co2        1 CDP1374   0.0000
     2 PB          55.0380    43.9400     1.3070 P.3          1 CDP1374   0.0000
     3 O1B         54.5560    43.0200     0.1640 O.co2        1 CDP1374  -1.0000
     4 O2B         54.7690    45.3340     0.8610 O.co2        1 CDP1374  -1.0000
     5 O3A         56.6040    43.5770     1.6020 O.3          1 CDP1374   0.0000
     6 PA          56.9520    42.0170     1.7460 P.3          1 CDP1374   0.0000
     7 O1A         58.4150    41.9070     1.0220 O.co2        1 CDP1374   0.0000
     8 O2A         56.9060    41.5340     3.1770 O.co2        1 CDP1374  -1.0000
     9 O5'         55.8030    41.2550     0.7260 O.3          1 CDP1374   0.0000
    10 C5'         54.4010    40.7480     1.1320 C.3          1 CDP1374   0.0000
    11 C4'         53.4160    40.3280    -0.0490 C.3          1 CDP1374   0.0000
    12 O4'         53.8560    40.7730    -1.3340 O.3          1 CDP1374   0.0000
    13 C3'         53.3860    38.8210    -0.2000 C.3          1 CDP1374   0.0000
    14 O3'         52.4300    38.2460     0.6770 O.3          1 CDP1374   0.0000
    15 C2'         53.0480    38.5720    -1.6780 C.3          1 CDP1374   0.0000
    16 O2'         51.6680    38.4800    -2.0230 O.3          1 CDP1374   0.0000
    17 C1'         53.4740    39.8340    -2.3240 C.3          1 CDP1374   0.0000
    18 N1          54.6780    39.6000    -3.1090 N.pl3        1 CDP1374   0.0000
    19 C2          54.5710    39.1840    -4.4100 C.2          1 CDP1374   0.0000
    20 O2          53.4590    38.9510    -4.8960 O.2          1 CDP1374   0.0000
    21 N3          55.7360    39.0250    -5.1580 N.2          1 CDP1374   0.0000
    22 C4          56.9830    39.2800    -4.6380 C.2          1 CDP1374   0.0000
    23 N4          58.0650    39.1410    -5.3720 N.pl3        1 CDP1374   0.0000
    24 C5          57.0940    39.6950    -3.3430 C.2          1 CDP1374   0.0000
    25 C6          55.9380    39.8720    -2.5820 C.2          1 CDP1374   0.0000
    26 H5'1        53.9554    41.4764     1.6524 H            1 CDP1374   0.0000
    27 H5'2        54.5272    39.9483     1.7189 H            1 CDP1374   0.0000
    28 H4'         52.4951    40.6717     0.1351 H            1 CDP1374   0.0000
    29 H3'         54.2913    38.4475     0.0025 H            1 CDP1374   0.0000
    30 H5          52.0665    37.4077     0.2706 H            1 CDP1374   0.0000
    31 H2'         53.5613    37.7928    -2.0378 H            1 CDP1374   0.0000
    32 H7          51.3695    37.5282    -1.9525 H            1 CDP1374   0.0000
    33 H1'         52.7428    40.2024    -2.8982 H            1 CDP1374   0.0000
    34 H9          58.9643    39.3307    -4.9779 H            1 CDP1374   0.0000
    35 H10         57.9886    38.8456    -6.3243 H            1 CDP1374   0.0000
    36 H11         57.9939    39.8704    -2.9437 H            1 CDP1374   0.0000
    37 H12         56.0157    40.2003    -1.6406 H            1 CDP1374   0.0000
@<TRIPOS>BOND
     1    1    2      ar
     2    2    3      ar
     3    2    4      ar
     4    2    5       1
     5    5    6       1
     6    6    7      ar
     7    6    8      ar
     8    6    9       1
     9    9   10       1
    10   10   11       1
    11   11   12       1
    12   11   13       1
    13   12   17       1
    14   13   14       1
    15   13   15       1
    16   15   16       1
    17   15   17       1
    18   17   18       1
    19   18   19       1
    20   18   25       1
    21   19   20       2
    22   19   21       1
    23   21   22       2
    24   22   23       1
    25   22   24       1
    26   24   25       2
    27   25   37       1
    28   24   36       1
    29   23   35       1
    30   10   26       1
    31   10   27       1
    32   11   28       1
    33   13   29       1
    34   14   30       1
    35   15   31       1
    36   16   32       1
    37   17   33       1
    38   23   34       1
@<TRIPOS>SUBSTRUCTURE
     1 CDP1374     1 GROUP             4 A     CDP     0 **** CDP A1374
