@<TRIPOS>MOLECULE
5er0_FAD_2_ligand
   84    89     1     0     0
SMALL
NO_CHARGES


@<TRIPOS>ATOM
     1 PA          16.6660   -65.5560     1.5400 P.3          1 FAD501   0.0000
     2 O1A         17.7960   -64.6410     0.9480 O.co2        1 FAD501   0.0000
     3 O2A         17.1410   -66.1830     2.8200 O.co2        1 FAD501  -1.0000
     4 O5B         16.3080   -66.6710     0.5280 O.3          1 FAD501   0.0000
     5 C5B         16.4640   -66.3720    -0.8640 C.3          1 FAD501   0.0000
     6 C4B         16.7720   -67.6990    -1.7030 C.3          1 FAD501   0.0000
     7 O4B         16.5200   -67.4790    -2.9550 O.3          1 FAD501   0.0000
     8 C3B         18.2550   -68.0300    -1.6110 C.3          1 FAD501   0.0000
     9 O3B         18.4310   -69.2950    -1.0870 O.3          1 FAD501   0.0000
    10 C2B         18.7720   -67.9690    -3.0690 C.3          1 FAD501   0.0000
    11 O2B         19.7470   -69.0520    -3.2980 O.3          1 FAD501   0.0000
    12 C1B         17.7330   -68.1310    -3.7950 C.3          1 FAD501   0.0000
    13 N9A         17.8760   -67.4660    -5.0200 N.pl3        1 FAD501   0.0000
    14 C8A         18.1680   -66.1420    -5.2250 C.2          1 FAD501   0.0000
    15 N7A         18.2120   -65.9280    -6.5730 N.2          1 FAD501   0.0000
    16 C5A         17.9450   -67.1300    -7.2040 C.ar         1 FAD501   0.0000
    17 C6A         17.8660   -67.4810    -8.5380 C.ar         1 FAD501   0.0000
    18 N6A         18.0240   -66.7530    -9.7720 N.pl3        1 FAD501   0.0000
    19 N1A         17.5820   -68.7560    -8.8840 N.ar         1 FAD501   0.0000
    20 C2A         17.3730   -69.6960    -7.9250 C.ar         1 FAD501   0.0000
    21 N3A         17.4550   -69.3470    -6.5960 N.ar         1 FAD501   0.0000
    22 C4A         17.7370   -68.0730    -6.2440 C.ar         1 FAD501   0.0000
    23 N1          15.9820   -62.2450    10.9910 N.2          1 FAD501   0.0000
    24 C2          15.2130   -62.2170    12.2260 C.2          1 FAD501   0.0000
    25 O2          14.0840   -61.9450    12.2060 O.2          1 FAD501   0.0000
    26 N3          15.8640   -62.5340    13.5060 N.pl3        1 FAD501   0.0000
    27 C4          17.2340   -62.8650    13.5260 C.2          1 FAD501   0.0000
    28 O4          17.7600   -63.1190    14.5440 O.2          1 FAD501   0.0000
    29 C4X         18.0090   -62.8890    12.2490 C.2          1 FAD501   0.0000
    30 N5          19.3950   -63.2230    12.2710 N.2          1 FAD501   0.0000
    31 C5X         20.1600   -63.2500    11.0300 C.ar         1 FAD501   0.0000
    32 C6          21.5200   -63.5790    11.0550 C.ar         1 FAD501   0.0000
    33 C7          22.2350   -63.6020     9.8830 C.ar         1 FAD501   0.0000
    34 C7M         23.6950   -63.9840    10.1440 C.3          1 FAD501   0.0000
    35 C8          21.6010   -63.2960     8.6710 C.ar         1 FAD501   0.0000
    36 C8M         22.2260   -63.2850     7.3620 C.3          1 FAD501   0.0000
    37 C9          20.2440   -62.9690     8.6450 C.ar         1 FAD501   0.0000
    38 C9A         19.5280   -62.9440     9.8060 C.ar         1 FAD501   0.0000
    39 N10         18.1190   -62.6080     9.7770 N.pl3        1 FAD501   0.0000
    40 C10         17.3660   -62.5790    11.0090 C.2          1 FAD501   0.0000
    41 C1'         17.4680   -62.2820     8.4990 C.3          1 FAD501   0.0000
    42 C2'         16.7370   -63.4670     7.9140 C.3          1 FAD501   0.0000
    43 O2'         17.5610   -64.6140     7.9630 O.3          1 FAD501   0.0000
    44 C3'         16.3920   -63.1500     6.4540 C.3          1 FAD501   0.0000
    45 O3'         15.5410   -62.0850     6.4090 O.3          1 FAD501   0.0000
    46 C4'         15.7240   -64.3900     5.7740 C.3          1 FAD501   0.0000
    47 O4'         16.6800   -65.2490     5.3190 O.3          1 FAD501   0.0000
    48 C5'         14.8750   -63.9300     4.6090 C.3          1 FAD501   0.0000
    49 O5'         14.2080   -65.0380     4.0720 O.3          1 FAD501   0.0000
    50 P           14.0220   -65.1140     2.4960 P.3          1 FAD501   0.0000
    51 O1P         13.6720   -66.5580     2.1060 O.co2        1 FAD501   0.0000
    52 O2P         12.9030   -64.1590     2.0580 O.co2        1 FAD501  -1.0000
    53 O3P         15.4080   -64.6370     1.8200 O.3          1 FAD501   0.0000
    54 H5B1        17.2219   -65.7296    -0.9778 H            1 FAD501   0.0000
    55 H5B2        15.6210   -65.9569    -1.2060 H            1 FAD501   0.0000
    56 H4B         16.2217   -68.4623    -1.3645 H            1 FAD501   0.0000
    57 H3B         18.7271   -67.3524    -1.0471 H            1 FAD501   0.0000
    58 H5          18.4462   -69.9643    -1.8298 H            1 FAD501   0.0000
    59 H2B         19.1901   -67.0795    -3.2532 H            1 FAD501   0.0000
    60 H7          19.2685   -69.8684    -3.6214 H            1 FAD501   0.0000
    61 H1B         17.5650   -69.1050    -3.9470 H            1 FAD501   0.0000
    62 H8A         18.3214   -65.4556    -4.5142 H            1 FAD501   0.0000
    63 H6A1        17.9192   -67.2245   -10.6476 H            1 FAD501   0.0000
    64 H6A2        18.2384   -65.7764    -9.7525 H            1 FAD501   0.0000
    65 H2A         17.1603   -70.6382    -8.1840 H            1 FAD501   0.0000
    66 H13         15.3383   -62.5149    14.3565 H            1 FAD501   0.0000
    67 H14         21.9687   -63.7962    11.9219 H            1 FAD501   0.0000
    68 H7M1        24.1965   -63.9947     9.2789 H            1 FAD501   0.0000
    69 H7M2        24.1093   -63.3152    10.7612 H            1 FAD501   0.0000
    70 H7M3        23.7324   -64.8916    10.5623 H            1 FAD501   0.0000
    71 H8M1        21.5482   -63.0334     6.6711 H            1 FAD501   0.0000
    72 H8M2        22.9724   -62.6195     7.3546 H            1 FAD501   0.0000
    73 H8M3        22.5882   -64.1945     7.1579 H            1 FAD501   0.0000
    74 H21         19.7975   -62.7534     7.7766 H            1 FAD501   0.0000
    75 H1'1        18.1661   -61.9812     7.8493 H            1 FAD501   0.0000
    76 H1'2        16.8128   -61.5420     8.6507 H            1 FAD501   0.0000
    77 H2'         15.8969   -63.6332     8.4304 H            1 FAD501   0.0000
    78 H25         17.8012   -64.8116     8.9134 H            1 FAD501   0.0000
    79 H3'         17.2314   -62.9194     5.9619 H            1 FAD501   0.0000
    80 H27         15.6865   -61.5777     5.5596 H            1 FAD501   0.0000
    81 H4'         15.1454   -64.8611     6.4398 H            1 FAD501   0.0000
    82 H29         16.5858   -65.3588     4.3295 H            1 FAD501   0.0000
    83 H5'1        15.4589   -63.5177     3.9097 H            1 FAD501   0.0000
    84 H5'2        14.2071   -63.2563     4.9252 H            1 FAD501   0.0000
@<TRIPOS>BOND
     1    1    2      ar
     2    1    3      ar
     3    1    4       1
     4    1   53       1
     5    4    5       1
     6    5    6       1
     7    6    7       1
     8    6    8       1
     9    7   12       1
    10    8    9       1
    11    8   10       1
    12   10   11       1
    13   10   12       1
    14   12   13       1
    15   13   14       1
    16   13   22       1
    17   14   15       2
    18   15   16       1
    19   16   17      ar
    20   16   22      ar
    21   17   18       1
    22   17   19      ar
    23   19   20      ar
    24   20   21      ar
    25   21   22      ar
    26   23   24       1
    27   23   40       2
    28   24   25       2
    29   24   26       1
    30   26   27       1
    31   27   28       2
    32   27   29       1
    33   29   30       2
    34   29   40       1
    35   30   31       1
    36   31   32      ar
    37   31   38      ar
    38   32   33      ar
    39   33   34       1
    40   33   35      ar
    41   35   36       1
    42   35   37      ar
    43   37   38      ar
    44   38   39       1
    45   39   40       1
    46   39   41       1
    47   41   42       1
    48   42   43       1
    49   42   44       1
    50   44   45       1
    51   44   46       1
    52   46   47       1
    53   46   48       1
    54   48   49       1
    55   49   50       1
    56   50   51      ar
    57   50   52      ar
    58   50   53       1
    59   48   84       1
    60    5   54       1
    61    5   55       1
    62    6   56       1
    63    8   57       1
    64    9   58       1
    65   10   59       1
    66   11   60       1
    67   12   61       1
    68   14   62       1
    69   18   63       1
    70   18   64       1
    71   20   65       1
    72   26   66       1
    73   32   67       1
    74   34   68       1
    75   34   69       1
    76   34   70       1
    77   36   71       1
    78   36   72       1
    79   36   73       1
    80   37   74       1
    81   41   75       1
    82   41   76       1
    83   42   77       1
    84   43   78       1
    85   44   79       1
    86   45   80       1
    87   46   81       1
    88   47   82       1
    89   48   83       1
@<TRIPOS>SUBSTRUCTURE
     1 FAD501      1 GROUP             4 B     FAD     0 **** FAD B 501
