@<TRIPOS>MOLECULE
1csc_CMC_1_ligand
   85    87     1     0     0
SMALL
NO_CHARGES


@<TRIPOS>ATOM
     1 N1A         19.4660    -7.9390    13.2370 N.ar         1 CMC700   0.0000
     2 C2A         19.0450    -8.5920    14.3540 C.ar         1 CMC700   0.0000
     3 N3A         18.1390    -9.5440    14.4050 N.ar         1 CMC700   0.0000
     4 C4A         17.8490   -10.0570    13.1870 C.ar         1 CMC700   0.0000
     5 C5A         18.3400    -9.6150    11.9600 C.ar         1 CMC700   0.0000
     6 C6A         19.1600    -8.4030    11.9950 C.ar         1 CMC700   0.0000
     7 N6A         19.6980    -7.9050    10.9290 N.pl3        1 CMC700   0.0000
     8 N7A         17.8120   -10.3000    10.9150 N.2          1 CMC700   0.0000
     9 C8A         17.1520   -11.3020    11.4660 C.2          1 CMC700   0.0000
    10 N9A         17.0570   -11.1710    12.8530 N.pl3        1 CMC700   0.0000
    11 C1B         16.1570   -11.9520    13.7460 C.3          1 CMC700   0.0000
    12 C2B         14.7570   -11.6690    13.3340 C.3          1 CMC700   0.0000
    13 O2B         14.3930   -10.3330    13.7630 O.3          1 CMC700   0.0000
    14 C3B         14.0270   -12.7930    14.0770 C.3          1 CMC700   0.0000
    15 O3B         14.0310   -12.4420    15.4220 O.3          1 CMC700   0.0000
    16 P3B         12.6930   -12.8940    16.3100 P.3          1 CMC700   0.0000
    17 O7A         11.5610   -12.0120    15.6400 O.co2        1 CMC700   0.0000
    18 O8A         12.8080   -12.3950    17.8240 O.co2        1 CMC700  -1.0000
    19 O9A         12.5210   -14.4370    15.9850 O.co2        1 CMC700  -1.0000
    20 C4B         14.9510   -13.9790    13.7270 C.3          1 CMC700   0.0000
    21 O4B         16.2450   -13.3430    13.4110 O.3          1 CMC700   0.0000
    22 C5B         14.6900   -14.9210    12.5520 C.3          1 CMC700   0.0000
    23 O5B         14.3630   -13.9870    11.4920 O.3          1 CMC700   0.0000
    24 P1A         14.8390   -14.2690     9.9850 P.3          1 CMC700   0.0000
    25 O1A         14.1120   -15.4100     9.3480 O.co2        1 CMC700   0.0000
    26 O2A         16.3450   -14.3220     9.9910 O.co2        1 CMC700  -1.0000
    27 O3A         14.3500   -12.9340     9.3390 O.3          1 CMC700   0.0000
    28 P2A         13.0300   -12.5090     8.4880 P.3          1 CMC700   0.0000
    29 O4A         13.1120   -13.2450     7.1260 O.co2        1 CMC700   0.0000
    30 O5A         11.7840   -12.5750     9.3830 O.co2        1 CMC700  -1.0000
    31 O6A         13.3470   -10.9200     8.2570 O.3          1 CMC700   0.0000
    32 CBP         14.7100    -9.1650     7.6330 C.3          1 CMC700   0.0000
    33 CCP         14.3090   -10.5900     7.2950 C.3          1 CMC700   0.0000
    34 CDP         15.3750    -8.4540     6.4350 C.3          1 CMC700   0.0000
    35 CEP         13.3840    -8.4890     8.0210 C.3          1 CMC700   0.0000
    36 CAP         15.6820    -9.2370     8.8410 C.3          1 CMC700   0.0000
    37 OAP         16.9040    -9.8400     8.4260 O.3          1 CMC700   0.0000
    38 C9P         16.0160    -7.8450     9.4000 C.2          1 CMC700   0.0000
    39 O9P         15.2080    -7.2870    10.2490 O.2          1 CMC700   0.0000
    40 N8P         17.0970    -7.2410     8.9150 N.am         1 CMC700   0.0000
    41 C7P         17.4390    -5.8710     9.3290 C.3          1 CMC700   0.0000
    42 C6P         16.6950    -4.8180     8.5080 C.3          1 CMC700   0.0000
    43 C5P         17.2470    -4.7840     7.1190 C.2          1 CMC700   0.0000
    44 O5P         18.4950    -4.7300     6.8630 O.2          1 CMC700   0.0000
    45 N4P         16.3240    -4.7420     6.2080 N.am         1 CMC700   0.0000
    46 C3P         16.5760    -4.7850     4.7140 C.3          1 CMC700   0.0000
    47 C2P         16.1880    -6.1140     4.0060 C.3          1 CMC700   0.0000
    48 S1P         16.8130    -6.3310     2.3080 S.3          1 CMC700   0.0000
    49 C1          16.9610    -4.7330     1.4460 C.3          1 CMC700   0.0000
    50 C2          15.7090    -3.8790     1.5470 C.2          1 CMC700   0.0000
    51 O21         14.6990    -4.4970     1.7550 O.co2        1 CMC700   0.0000
    52 O22         15.7420    -2.5790     1.5410 O.co2        1 CMC700  -1.0000
    53 H2A         19.4653    -8.3218    15.2203 H            1 CMC700   0.0000
    54 H6A1        19.4532    -8.2670    10.0295 H            1 CMC700   0.0000
    55 H6A2        20.3586    -7.1581    11.0045 H            1 CMC700   0.0000
    56 H8A         16.7650   -12.0661    10.9499 H            1 CMC700   0.0000
    57 H1B         16.3209   -11.7740    14.7163 H            1 CMC700   0.0000
    58 H2B         14.6498   -11.7673    12.3446 H            1 CMC700   0.0000
    59 H7          15.1671    -9.9123    14.2360 H            1 CMC700   0.0000
    60 H3B         13.0990   -12.9282    13.7297 H            1 CMC700   0.0000
    61 H4B         15.0700   -14.5341    14.5502 H            1 CMC700   0.0000
    62 H5B1        13.9264   -15.5380    12.7423 H            1 CMC700   0.0000
    63 H5B2        15.5037   -15.4571    12.3271 H            1 CMC700   0.0000
    64 HCP1        13.9204   -10.6392     6.3749 H            1 CMC700   0.0000
    65 HCP2        15.0964   -11.2032     7.3575 H            1 CMC700   0.0000
    66 HDP1        15.6236    -7.5215     6.6969 H            1 CMC700   0.0000
    67 HDP2        16.1973    -8.9547     6.1648 H            1 CMC700   0.0000
    68 HDP3        14.7349    -8.4252     5.6673 H            1 CMC700   0.0000
    69 HEP1        13.5550    -7.5337     8.2623 H            1 CMC700   0.0000
    70 HEP2        12.7506    -8.5294     7.2482 H            1 CMC700   0.0000
    71 HEP3        12.9843    -8.9644     8.8048 H            1 CMC700   0.0000
    72 HAP         15.2694    -9.7919     9.5634 H            1 CMC700   0.0000
    73 H21         17.5326    -9.8879     9.2023 H            1 CMC700   0.0000
    74 H8P         17.6828    -7.7223     8.2630 H            1 CMC700   0.0000
    75 H7P1        18.4228    -5.7351     9.2117 H            1 CMC700   0.0000
    76 H7P2        17.1993    -5.7564    10.2931 H            1 CMC700   0.0000
    77 H6P1        16.8105    -3.9208     8.9342 H            1 CMC700   0.0000
    78 H6P2        15.7225    -5.0482     8.4742 H            1 CMC700   0.0000
    79 H4P         15.3745    -4.6763     6.5148 H            1 CMC700   0.0000
    80 H3P1        17.5519    -4.6287     4.5618 H            1 CMC700   0.0000
    81 H3P2        16.0503    -4.0465     4.2918 H            1 CMC700   0.0000
    82 H2P1        15.1897    -6.1620     3.9724 H            1 CMC700   0.0000
    83 H2P2        16.5396    -6.8689     4.5596 H            1 CMC700   0.0000
    84 H32         17.1479    -4.9095     0.4796 H            1 CMC700   0.0000
    85 H33         17.7245    -4.2259     1.8460 H            1 CMC700   0.0000
@<TRIPOS>BOND
     1    1    2      ar
     2    1    6      ar
     3    2    3      ar
     4    3    4      ar
     5    4    5      ar
     6    4   10       1
     7    5    6      ar
     8    5    8       1
     9    6    7       1
    10    8    9       2
    11    9   10       1
    12   10   11       1
    13   11   12       1
    14   11   21       1
    15   12   13       1
    16   12   14       1
    17   14   15       1
    18   14   20       1
    19   15   16       1
    20   16   17      ar
    21   16   18      ar
    22   16   19      ar
    23   20   21       1
    24   20   22       1
    25   22   23       1
    26   23   24       1
    27   24   25      ar
    28   24   26      ar
    29   24   27       1
    30   27   28       1
    31   28   29      ar
    32   28   30      ar
    33   28   31       1
    34   31   33       1
    35   32   33       1
    36   32   34       1
    37   32   35       1
    38   32   36       1
    39   36   37       1
    40   36   38       1
    41   38   39       2
    42   38   40      am
    43   40   41       1
    44   41   42       1
    45   42   43       1
    46   43   44       2
    47   43   45      am
    48   45   46       1
    49   46   47       1
    50   47   48       1
    51   48   49       1
    52   49   50       1
    53   50   51      ar
    54   50   52      ar
    55    2   53       1
    56    7   54       1
    57    7   55       1
    58    9   56       1
    59   11   57       1
    60   12   58       1
    61   13   59       1
    62   14   60       1
    63   47   82       1
    64   49   85       1
    65   20   61       1
    66   22   62       1
    67   22   63       1
    68   49   84       1
    69   47   83       1
    70   33   64       1
    71   33   65       1
    72   34   66       1
    73   34   67       1
    74   34   68       1
    75   35   69       1
    76   35   70       1
    77   35   71       1
    78   36   72       1
    79   37   73       1
    80   40   74       1
    81   41   75       1
    82   41   76       1
    83   42   77       1
    84   42   78       1
    85   45   79       1
    86   46   80       1
    87   46   81       1
@<TRIPOS>SUBSTRUCTURE
     1 CMC700      1 GROUP             4 A     CMC     0 **** CMC A 700
