@<TRIPOS>MOLECULE
3tn8_F18_1_ligand
   26    27     1     0     0
SMALL
NO_CHARGES


@<TRIPOS>ATOM
     1 C3          47.4620   -14.9800   -13.2600 C.ar         1 F18332   0.0000
     2 C6          47.9050   -13.6720   -13.0960 C.ar         1 F18332   0.0000
     3 C2          49.2430   -13.3680   -13.2230 C.ar         1 F18332   0.0000
     4 O3          46.1400   -15.2670   -13.1260 O.3          1 F18332   0.0000
     5 C5          50.1510   -14.3890   -13.5140 C.ar         1 F18332   0.0000
     6 C4          49.7020   -15.7030   -13.6730 C.ar         1 F18332   0.0000
     7 C1          48.3630   -15.9950   -13.5480 C.ar         1 F18332   0.0000
     8 N9          51.4830   -14.1110   -13.6370 N.2          1 F18332   0.0000
     9 N13         52.3450   -15.0700   -13.5740 N.2          1 F18332   0.0000
    10 C14         53.6620   -14.8120   -13.7830 C.2          1 F18332   0.0000
    11 C19         54.6660   -15.7650   -13.9190 C.2          1 F18332   0.0000
    12 N16         54.5010   -17.1370   -13.8550 N.pl3        1 F18332   0.0000
    13 N20         55.8250   -15.1030   -14.1190 N.pl3        1 F18332   0.0000
    14 N17         55.5620   -13.7280   -14.1090 N.2          1 F18332   0.0000
    15 C15         54.2840   -13.5380   -13.9100 C.2          1 F18332   0.0000
    16 N18         53.6600   -12.2940   -13.8350 N.pl3        1 F18332   0.0000
    17 H1          47.2486   -12.9478   -12.8846 H            1 F18332   0.0000
    18 H2          49.5606   -12.4268   -13.1081 H            1 F18332   0.0000
    19 H3          45.4896   -14.5387   -12.9102 H            1 F18332   0.0000
    20 H4          50.3549   -16.4322   -13.8779 H            1 F18332   0.0000
    21 H5          48.0409   -16.9345   -13.6642 H            1 F18332   0.0000
    22 H6          55.2901   -17.7412   -13.9658 H            1 F18332   0.0000
    23 H7          53.5926   -17.5246   -13.6979 H            1 F18332   0.0000
    24 H8          56.7220   -15.5244   -14.2521 H            1 F18332   0.0000
    25 H9          54.1981   -11.4576   -13.9393 H            1 F18332   0.0000
    26 H10         52.6742   -12.2378   -13.6768 H            1 F18332   0.0000
@<TRIPOS>BOND
     1    1    2      ar
     2    1    4       1
     3    1    7      ar
     4    2    3      ar
     5    3    5      ar
     6    5    6      ar
     7    5    8       1
     8    6    7      ar
     9    8    9       2
    10    9   10       1
    11   10   11       2
    12   10   15       1
    13   11   12       1
    14   11   13       1
    15   13   14       1
    16   14   15       2
    17   15   16       1
    18    2   17       1
    19    3   18       1
    20    4   19       1
    21    6   20       1
    22    7   21       1
    23   12   22       1
    24   12   23       1
    25   13   24       1
    26   16   25       1
    27   16   26       1
@<TRIPOS>SUBSTRUCTURE
     1 F18332      1 GROUP             4 A     F18     0 **** F18 A 332
