@<TRIPOS>MOLECULE
2vrj_NCW_2_ligand
   50    51     1     0     0
SMALL
NO_CHARGES


@<TRIPOS>ATOM
     1 S1         -21.1060   -31.2680    -3.0050 S.2          1 NCW1446   0.0000
     2 C7         -21.2920   -30.2200    -4.1990 C.2          1 NCW1446   0.0000
     3 N1         -20.2380   -29.5370    -4.6970 N.pl3        1 NCW1446   0.0000
     4 C5         -20.2590   -28.6290    -5.8340 C.3          1 NCW1446   0.0000
     5 C4         -19.5840   -29.4220    -6.9650 C.3          1 NCW1446   0.0000
     6 O4         -19.3690   -28.5720    -8.1040 O.3          1 NCW1446   0.0000
     7 C3         -18.2450   -30.0650    -6.5530 C.3          1 NCW1446   0.0000
     8 O3         -17.7780   -31.0300    -7.4900 O.3          1 NCW1446   0.0000
     9 C2         -18.2660   -30.6650    -5.1410 C.3          1 NCW1446   0.0000
    10 O2         -16.9490   -31.0790    -4.7620 O.3          1 NCW1446   0.0000
    11 C6         -19.2740   -27.5970    -5.3070 C.3          1 NCW1446   0.0000
    12 O1         -18.3790   -28.3240    -4.4320 O.3          1 NCW1446   0.0000
    13 C1         -18.8850   -29.6410    -4.1820 C.3          1 NCW1446   0.0000
    14 N2         -22.5010   -30.0170    -4.7410 N.pl3        1 NCW1446   0.0000
    15 C8         -23.4820   -31.0720    -4.9490 C.3          1 NCW1446   0.0000
    16 C9         -24.7730   -30.7750    -4.1980 C.3          1 NCW1446   0.0000
    17 C10        -25.6590   -32.0170    -4.1110 C.3          1 NCW1446   0.0000
    18 C11        -25.7670   -32.5500    -2.6890 C.3          1 NCW1446   0.0000
    19 C12        -27.2160   -32.4780    -2.1930 C.3          1 NCW1446   0.0000
    20 C13        -27.2920   -32.2710    -0.6820 C.3          1 NCW1446   0.0000
    21 C14        -27.7170   -33.5460     0.0340 C.3          1 NCW1446   0.0000
    22 C15        -28.1100   -33.2580     1.4670 C.3          1 NCW1446   0.0000
    23 H1         -21.1625   -28.2655    -6.0610 H            1 NCW1446   0.0000
    24 H2         -20.2057   -30.1551    -7.2407 H            1 NCW1446   0.0000
    25 H3         -20.2473   -28.2208    -8.4283 H            1 NCW1446   0.0000
    26 H4         -17.5677   -29.3294    -6.5400 H            1 NCW1446   0.0000
    27 H5         -17.6435   -30.5931    -8.3794 H            1 NCW1446   0.0000
    28 H6         -18.8544   -31.4735    -5.1551 H            1 NCW1446   0.0000
    29 H7         -16.4791   -30.3217    -4.3086 H            1 NCW1446   0.0000
    30 H8         -19.7553   -26.8828    -4.7987 H            1 NCW1446   0.0000
    31 H9         -18.7647   -27.1834    -6.0617 H            1 NCW1446   0.0000
    32 H10        -18.8407   -29.9127    -3.2207 H            1 NCW1446   0.0000
    33 H11        -22.7429   -29.0872    -5.0184 H            1 NCW1446   0.0000
    34 H12        -23.1049   -31.9381    -4.6208 H            1 NCW1446   0.0000
    35 H13        -23.6817   -31.1444    -5.9262 H            1 NCW1446   0.0000
    36 H14        -25.2706   -30.0522    -4.6775 H            1 NCW1446   0.0000
    37 H15        -24.5492   -30.4684    -3.2729 H            1 NCW1446   0.0000
    38 H16        -25.2704   -32.7309    -4.6935 H            1 NCW1446   0.0000
    39 H17        -26.5748   -31.7824    -4.4371 H            1 NCW1446   0.0000
    40 H18        -25.1863   -32.0013    -2.0876 H            1 NCW1446   0.0000
    41 H19        -25.4605   -33.5017    -2.6708 H            1 NCW1446   0.0000
    42 H20        -27.6801   -33.3327    -2.4258 H            1 NCW1446   0.0000
    43 H21        -27.6755   -31.7147    -2.6472 H            1 NCW1446   0.0000
    44 H22        -27.9572   -31.5506    -0.4855 H            1 NCW1446   0.0000
    45 H23        -26.3917   -31.9941    -0.3461 H            1 NCW1446   0.0000
    46 H24        -26.9554   -34.1940     0.0277 H            1 NCW1446   0.0000
    47 H25        -28.4984   -33.9454    -0.4455 H            1 NCW1446   0.0000
    48 H26        -28.3844   -34.1090     1.9148 H            1 NCW1446   0.0000
    49 H27        -27.3311   -32.8617     1.9530 H            1 NCW1446   0.0000
    50 H28        -28.8741   -32.6131     1.4799 H            1 NCW1446   0.0000
@<TRIPOS>BOND
     1    1    2       2
     2    2    3       1
     3    2   14       1
     4    3    4       1
     5    3   13       1
     6    4    5       1
     7    4   11       1
     8    5    6       1
     9    5    7       1
    10    7    8       1
    11    7    9       1
    12    9   10       1
    13    9   13       1
    14   11   12       1
    15   12   13       1
    16   14   15       1
    17   15   16       1
    18   16   17       1
    19   17   18       1
    20   18   19       1
    21   19   20       1
    22   20   21       1
    23   21   22       1
    24    4   23       1
    25    5   24       1
    26    6   25       1
    27    7   26       1
    28    8   27       1
    29    9   28       1
    30   10   29       1
    31   11   30       1
    32   11   31       1
    33   13   32       1
    34   14   33       1
    35   15   34       1
    36   15   35       1
    37   16   36       1
    38   16   37       1
    39   17   38       1
    40   17   39       1
    41   18   40       1
    42   18   41       1
    43   19   42       1
    44   19   43       1
    45   20   44       1
    46   20   45       1
    47   21   46       1
    48   21   47       1
    49   22   48       1
    50   22   49       1
    51   22   50       1
@<TRIPOS>SUBSTRUCTURE
     1 NCW1446     1 GROUP             4 B     NCW     0 **** NCW B1446
