@<TRIPOS>MOLECULE
3vil_SA0_1_ligand
   38    39     1     0     0
SMALL
NO_CHARGES


@<TRIPOS>ATOM
     1 C1         -27.1230    83.5230    14.8400 C.3          1 SA0507   0.0000
     2 O1         -27.0040    84.0670    13.5000 O.3          1 SA0507   0.0000
     3 C2         -28.5690    83.2770    15.3190 C.3          1 SA0507   0.0000
     4 O2         -29.0920    84.4880    15.8600 O.3          1 SA0507   0.0000
     5 C3         -28.7840    82.1580    16.3460 C.3          1 SA0507   0.0000
     6 O3         -30.1920    81.8860    16.4370 O.3          1 SA0507   0.0000
     7 C4         -28.0500    80.9180    15.8720 C.3          1 SA0507   0.0000
     8 O4         -28.2830    79.8290    16.7660 O.3          1 SA0507   0.0000
     9 C5         -26.5790    81.3250    15.8540 C.3          1 SA0507   0.0000
    10 O5         -26.3360    82.3370    14.8680 O.3          1 SA0507   0.0000
    11 C6         -25.6250    80.1930    15.5220 C.3          1 SA0507   0.0000
    12 O6         -25.8840    79.7310    14.1870 O.3          1 SA0507   0.0000
    13 OAA        -26.4340    80.9370    11.6110 O.3          1 SA0507   0.0000
    14 CAF        -23.4260    84.2620    11.2400 C.ar         1 SA0507   0.0000
    15 CAG        -23.6270    85.0950    12.3380 C.ar         1 SA0507   0.0000
    16 CAH        -24.4320    83.3530    10.9050 C.ar         1 SA0507   0.0000
    17 CAI        -24.8180    85.0050    13.0640 C.ar         1 SA0507   0.0000
    18 CAJ        -26.6710    82.2850    11.2020 C.3          1 SA0507   0.0000
    19 CAN        -25.6160    83.2730    11.6450 C.ar         1 SA0507   0.0000
    20 CAO        -25.8360    84.1060    12.7440 C.ar         1 SA0507   0.0000
    21 H1         -26.7042    84.1776    15.4694 H            1 SA0507   0.0000
    22 H2         -29.1155    83.0504    14.5127 H            1 SA0507   0.0000
    23 H3         -28.5266    84.7800    16.6314 H            1 SA0507   0.0000
    24 H4         -28.4331    82.4419    17.2383 H            1 SA0507   0.0000
    25 H5         -30.3483    81.1574    17.1038 H            1 SA0507   0.0000
    26 H6         -28.3494    80.6742    14.9496 H            1 SA0507   0.0000
    27 H7         -27.7934    79.0200    16.4407 H            1 SA0507   0.0000
    28 H8         -26.3385    81.6914    16.7529 H            1 SA0507   0.0000
    29 H9         -25.7604    79.4416    16.1678 H            1 SA0507   0.0000
    30 H10        -24.6824    80.5210    15.5851 H            1 SA0507   0.0000
    31 H11        -26.5665    79.0006    14.2136 H            1 SA0507   0.0000
    32 HAA        -26.3974    80.8931    12.6094 H            1 SA0507   0.0000
    33 HAF        -22.5827    84.3135    10.7050 H            1 SA0507   0.0000
    34 HAG        -22.9235    85.7535    12.6053 H            1 SA0507   0.0000
    35 HAH        -24.3031    82.7470    10.1200 H            1 SA0507   0.0000
    36 HAI        -24.9463    85.6123    13.8481 H            1 SA0507   0.0000
    37 HAJ1       -27.5494    82.5759    11.5812 H            1 SA0507   0.0000
    38 HAJ2       -26.7163    82.3043    10.2032 H            1 SA0507   0.0000
@<TRIPOS>BOND
     1    1    2       1
     2    1    3       1
     3    1   10       1
     4    2   20       1
     5    3    4       1
     6    3    5       1
     7    5    6       1
     8    5    7       1
     9    7    8       1
    10    7    9       1
    11    9   10       1
    12    9   11       1
    13   11   12       1
    14   13   18       1
    15   14   15      ar
    16   14   16      ar
    17   15   17      ar
    18   16   19      ar
    19   17   20      ar
    20   18   19       1
    21   19   20      ar
    22    1   21       1
    23    3   22       1
    24    4   23       1
    25    5   24       1
    26    6   25       1
    27    7   26       1
    28    8   27       1
    29    9   28       1
    30   11   29       1
    31   11   30       1
    32   12   31       1
    33   13   32       1
    34   14   33       1
    35   15   34       1
    36   16   35       1
    37   17   36       1
    38   18   37       1
    39   18   38       1
@<TRIPOS>SUBSTRUCTURE
     1 SA0507      1 GROUP             4 A     SA0     0 **** SA0 A 507
