@<TRIPOS>MOLECULE
4dkp_0LL_2_ligand
   40    42     1     0     0
SMALL
NO_CHARGES


@<TRIPOS>ATOM
     1 C13         -8.3930   -33.3410     0.3980 C.2          1 0LL513   0.0000
     2 C15         -6.1660   -33.1860     1.6460 C.ar         1 0LL513   0.0000
     3 C20         -4.4900   -32.3750     3.8020 C.ar         1 0LL513   0.0000
     4 C21         -5.8360   -32.6570     4.0020 C.ar         1 0LL513   0.0000
     5 C22         -6.6770   -33.0520     2.9520 C.ar         1 0LL513   0.0000
     6 C01        -15.2960   -33.8330    -0.5850 C.ar         1 0LL513   0.0000
     7 C02        -13.9700   -34.2360    -0.7830 C.ar         1 0LL513   0.0000
     8 C03        -13.1060   -33.4960    -1.5780 C.ar         1 0LL513   0.0000
     9 C04        -13.6000   -32.3160    -2.1780 C.ar         1 0LL513   0.0000
    10 C05        -14.9210   -31.9090    -1.9890 C.ar         1 0LL513   0.0000
    11 C06        -15.7780   -32.6740    -1.1840 C.ar         1 0LL513   0.0000
    12 C07        -11.6320   -33.7420    -1.9180 C.3          1 0LL513   0.0000
    13 C08        -11.3970   -32.7350    -3.1220 C.3          1 0LL513   0.0000
    14 C09        -12.5220   -31.6640    -2.9890 C.3          1 0LL513   0.0000
    15 N10        -11.4760   -33.4570    -4.3980 N.4          1 0LL513   1.0000
    16 N11        -10.6360   -33.4700    -0.8430 N.am         1 0LL513   0.0000
    17 C12         -9.2690   -33.7250    -0.8510 C.2          1 0LL513   0.0000
    18 N14         -7.0050   -33.5620     0.5230 N.am         1 0LL513   0.0000
    19 O16         -9.0230   -32.8170     1.3220 O.2          1 0LL513   0.0000
    20 O17         -8.6980   -34.2580    -1.8160 O.2          1 0LL513   0.0000
    21 C18         -4.7920   -32.8730     1.4670 C.ar         1 0LL513   0.0000
    22 C19         -3.9810   -32.4900     2.5310 C.ar         1 0LL513   0.0000
    23 CL          -3.5110   -31.8810     5.1120 Cl           1 0LL513   0.0000
    24 F24         -6.3470   -32.5550     5.2200 F            1 0LL513   0.0000
    25 H1          -7.6429   -33.2393     3.1308 H            1 0LL513   0.0000
    26 H2         -15.9010   -34.3824    -0.0087 H            1 0LL513   0.0000
    27 H3         -13.6397   -35.0715    -0.3440 H            1 0LL513   0.0000
    28 H4         -15.2560   -31.0743    -2.4261 H            1 0LL513   0.0000
    29 H5         -16.7260   -32.3889    -1.0422 H            1 0LL513   0.0000
    30 H6         -11.5194   -34.6806    -2.2443 H            1 0LL513   0.0000
    31 H7         -10.5010   -32.3002    -3.0320 H            1 0LL513   0.0000
    32 H8         -12.1766   -30.8502    -2.5216 H            1 0LL513   0.0000
    33 H9         -12.8695   -31.4080    -3.8911 H            1 0LL513   0.0000
    34 H10        -11.3272   -32.8177    -5.1525 H            1 0LL513   0.0000
    35 H11        -10.7749   -34.1696    -4.4217 H            1 0LL513   0.0000
    36 H12        -10.9968   -33.0507    -0.0099 H            1 0LL513   0.0000
    37 H13         -6.5534   -34.0248    -0.2398 H            1 0LL513   0.0000
    38 H14         -4.3963   -32.9295     0.5504 H            1 0LL513   0.0000
    39 H15         -3.0137   -32.2956     2.3682 H            1 0LL513   0.0000
    40 H16        -12.3797   -33.8754    -4.4889 H            1 0LL513   0.0000
@<TRIPOS>BOND
     1    1   17       1
     2    1   18      am
     3    1   19       2
     4    2    5      ar
     5    2   18       1
     6    2   21      ar
     7    3    4      ar
     8    3   22      ar
     9    3   23       1
    10    4    5      ar
    11    4   24       1
    12    6    7      ar
    13    6   11      ar
    14    7    8      ar
    15    8    9      ar
    16    8   12       1
    17    9   10      ar
    18    9   14       1
    19   10   11      ar
    20   12   13       1
    21   12   16       1
    22   13   14       1
    23   13   15       1
    24   16   17      am
    25   17   20       2
    26   21   22      ar
    27    5   25       1
    28    6   26       1
    29    7   27       1
    30   10   28       1
    31   11   29       1
    32   12   30       1
    33   13   31       1
    34   14   32       1
    35   14   33       1
    36   15   34       1
    37   15   35       1
    38   16   36       1
    39   18   37       1
    40   21   38       1
    41   22   39       1
    42   15   40       1
@<TRIPOS>SUBSTRUCTURE
     1 0LL513      1 GROUP             4 C     0LL     0 **** 0LL C 513
