@<TRIPOS>MOLECULE
4glx_0XS_1_ligand
   25    26     1     0     0
SMALL
NO_CHARGES


@<TRIPOS>ATOM
     1 C4          27.3170     5.1160     6.8920 C.ar         1 0XS603   0.0000
     2 C6          30.9620     4.3210     6.3730 C.3          1 0XS603   0.0000
     3 C7          26.7970     4.5390     5.7390 C.ar         1 0XS603   0.0000
     4 C8          27.6240     3.9060     4.8310 C.ar         1 0XS603   0.0000
     5 C12         25.4640     4.5940     5.4910 C.ar         1 0XS603   0.0000
     6 C14         25.0110     4.0110     4.3310 C.ar         1 0XS603   0.0000
     7 C15         25.8760     3.3470     3.4330 C.ar         1 0XS603   0.0000
     8 O18         23.0340     3.2520     3.4550 O.2          1 0XS603   0.0000
     9 C16         23.5490     4.0680     4.2060 C.2          1 0XS603   0.0000
    10 N19         22.8580     4.8650     5.0420 N.am         1 0XS603   0.0000
    11 C2          28.6810     5.0710     7.1400 C.ar         1 0XS603   0.0000
    12 BR1         29.5110     5.8950     8.6760 Br           1 0XS603   0.0000
    13 N17         25.4940     2.7530     2.2670 N.pl3        1 0XS603   0.0000
    14 N13         27.1710     3.3180     3.7190 N.ar         1 0XS603   0.0000
    15 N5          28.9400     3.9010     5.0610 N.ar         1 0XS603   0.0000
    16 C3          29.4810     4.4460     6.1860 C.ar         1 0XS603   0.0000
    17 F9          31.5450     5.3980     6.8760 F            1 0XS603   0.0000
    18 F10         31.1390     3.3080     7.2280 F            1 0XS603   0.0000
    19 F11         31.4750     4.0060     5.1880 F            1 0XS603   0.0000
    20 H1          26.7061     5.5647     7.5443 H            1 0XS603   0.0000
    21 H2          24.8354     5.0412     6.1273 H            1 0XS603   0.0000
    22 H3          21.8618     4.9179     4.9731 H            1 0XS603   0.0000
    23 H4          23.3408     5.4043     5.7320 H            1 0XS603   0.0000
    24 H5          26.1746     2.3033     1.6886 H            1 0XS603   0.0000
    25 H6          24.5332     2.7670     1.9901 H            1 0XS603   0.0000
@<TRIPOS>BOND
     1    1    3      ar
     2    1   11      ar
     3    2   16       1
     4    2   17       1
     5    2   18       1
     6    2   19       1
     7    3    4      ar
     8    3    5      ar
     9    4   14      ar
    10    4   15      ar
    11    5    6      ar
    12    6    7      ar
    13    6    9       1
    14    7   13       1
    15    7   14      ar
    16    8    9       2
    17    9   10      am
    18   11   12       1
    19   11   16      ar
    20   15   16      ar
    21    1   20       1
    22    5   21       1
    23   10   22       1
    24   10   23       1
    25   13   24       1
    26   13   25       1
@<TRIPOS>SUBSTRUCTURE
     1 0XS603      1 GROUP             4 A     0XS     0 **** 0XS A 603
