@<TRIPOS>MOLECULE
4l0o_PLP_4_ligand
   22    22     1     0     0
SMALL
NO_CHARGES


@<TRIPOS>ATOM
     1 N1          50.9000    -0.9330   -29.6410 N.ar         1 PLP401   1.0000
     2 C2          51.4610    -0.4210   -28.5120 C.ar         1 PLP401   0.0000
     3 C3          52.9270    -0.1460   -28.4660 C.ar         1 PLP401   0.0000
     4 O3          53.5140     0.3690   -27.3440 O.3          1 PLP401   0.0000
     5 C4          53.7200    -0.4520   -29.6840 C.ar         1 PLP401   0.0000
     6 C4A         55.1830    -0.1820   -29.6850 C.2          1 PLP401   0.0000
     7 O4A         55.9450    -0.8010   -30.4520 O.2          1 PLP401   0.0000
     8 C5          52.9790    -1.0100   -30.8600 C.ar         1 PLP401   0.0000
     9 C6          51.5970    -1.2180   -30.7580 C.ar         1 PLP401   0.0000
    10 C5A         53.6780    -1.3650   -32.1580 C.3          1 PLP401   0.0000
    11 O4P         54.2040    -2.6940   -32.0540 O.3          1 PLP401   0.0000
    12 P           55.3450    -3.2510   -33.0540 P.3          1 PLP401   0.0000
    13 O1P         54.7910    -3.0500   -34.4450 O.co2        1 PLP401   0.0000
    14 O2P         55.5130    -4.6940   -32.6370 O.co2        1 PLP401  -1.0000
    15 O3P         56.5360    -2.3670   -32.7770 O.co2        1 PLP401  -1.0000
    16 H1          50.8909    -0.2290   -27.7131 H            1 PLP401   0.0000
    17 H2          54.4980     0.5469   -27.3313 H            1 PLP401   0.0000
    18 H4A         55.5592     0.5044   -29.0627 H            1 PLP401   0.0000
    19 H4          51.1086    -1.5930   -31.5459 H            1 PLP401   0.0000
    20 H5A1        54.4245    -0.7207   -32.3243 H            1 PLP401   0.0000
    21 H5A2        53.0248    -1.3208   -32.9139 H            1 PLP401   0.0000
    22 H7          49.9153    -1.1075   -29.6416 H            1 PLP401   0.0000
@<TRIPOS>BOND
     1    1    2      ar
     2    1    9      ar
     3    2    3      ar
     4    3    4       1
     5    3    5      ar
     6    5    6       1
     7    5    8      ar
     8    6    7       2
     9    8    9      ar
    10    8   10       1
    11   10   11       1
    12   11   12       1
    13   12   13      ar
    14   12   14      ar
    15   12   15      ar
    16    2   16       1
    17    4   17       1
    18    6   18       1
    19    9   19       1
    20   10   20       1
    21   10   21       1
    22    1   22       1
@<TRIPOS>SUBSTRUCTURE
     1 PLP401      1 GROUP             4 H     PLP     0 **** PLP H 401
