@<TRIPOS>MOLECULE
3blo_QEI_1_ligand
   36    38     1     0     0
SMALL
NO_CHARGES


@<TRIPOS>ATOM
     1 C1          20.6790    21.1030    19.0480 C.3          1 QEI600   0.0000
     2 C2          20.7910    22.4250    19.8530 C.3          1 QEI600   0.0000
     3 C3          19.6820    21.4840    17.9680 C.2          1 QEI600   0.0000
     4 C4          19.6460    23.3230    19.3980 C.3          1 QEI600   0.0000
     5 C5          19.1660    22.6960    18.1140 C.2          1 QEI600   0.0000
     6 C6          20.2130    18.4860    19.5250 C.3          1 QEI600   0.0000
     7 C9          18.0450    18.0430    20.8950 C.2          1 QEI600   0.0000
     8 C10         16.7050    17.7430    20.4400 C.2          1 QEI600   0.0000
     9 C11         18.2900    18.1290    22.3370 C.2          1 QEI600   0.0000
    10 O1          22.0000    23.1280    19.5690 O.3          1 QEI600   0.0000
    11 O2          20.1580    24.6150    19.1470 O.3          1 QEI600   0.0000
    12 N1          20.0630    19.9670    19.8100 N.4          1 QEI600   1.0000
    13 C7          18.7820    18.1790    19.6530 C.2          1 QEI600   0.0000
    14 C8          17.9060    17.9680    18.5970 C.2          1 QEI600   0.0000
    15 N2          16.6920    17.7170    19.0840 N.pl3        1 QEI600   0.0000
    16 N3          15.7800    17.5620    21.4120 N.2          1 QEI600   0.0000
    17 C12         16.0510    17.6510    22.7220 C.2          1 QEI600   0.0000
    18 N5          14.9610    17.9520    23.4710 N.pl3        1 QEI600   0.0000
    19 N4          17.2900    17.9300    23.1870 N.pl3        1 QEI600   0.0000
    20 O3          19.3950    18.3730    22.7520 O.2          1 QEI600   0.0000
    21 H1          21.5600    20.8413    18.6539 H            1 QEI600   0.0000
    22 H2          20.7189    22.2412    20.8333 H            1 QEI600   0.0000
    23 H3          19.4366    20.8748    17.2139 H            1 QEI600   0.0000
    24 H4          18.9160    23.3507    20.0809 H            1 QEI600   0.0000
    25 H5          18.5451    23.1333    17.4634 H            1 QEI600   0.0000
    26 H6          20.7746    18.0139    20.2045 H            1 QEI600   0.0000
    27 H7          20.5705    18.3001    18.6098 H            1 QEI600   0.0000
    28 H8          21.7815    24.0314    19.2000 H            1 QEI600   0.0000
    29 H9          19.7025    25.2758    19.7436 H            1 QEI600   0.0000
    30 H10         19.0783    20.1372    19.7737 H            1 QEI600   0.0000
    31 H11         18.1475    17.9994    17.6271 H            1 QEI600   0.0000
    32 H12         15.8822    17.5345    18.5265 H            1 QEI600   0.0000
    33 H13         15.0459    18.0436    24.4632 H            1 QEI600   0.0000
    34 H14         14.0725    18.0823    23.0310 H            1 QEI600   0.0000
    35 H15         20.3867    20.0820    20.7491 H            1 QEI600   0.0000
    36 H16         17.4529    17.9864    24.1720 H            1 QEI600   0.0000
@<TRIPOS>BOND
     1    1    2       1
     2    1    3       1
     3    1   12       1
     4    2    4       1
     5    2   10       1
     6    3    5       2
     7    4    5       1
     8    4   11       1
     9    6   12       1
    10    6   13       1
    11    7    8       2
    12    7    9       1
    13    7   13       1
    14    8   15       1
    15    8   16       1
    16    9   19       1
    17    9   20       2
    18   13   14       2
    19   14   15       1
    20   16   17       2
    21   17   18       1
    22   17   19       1
    23    1   21       1
    24    2   22       1
    25    3   23       1
    26    4   24       1
    27    5   25       1
    28    6   26       1
    29    6   27       1
    30   10   28       1
    31   11   29       1
    32   12   30       1
    33   14   31       1
    34   15   32       1
    35   12   35       1
    36   18   33       1
    37   18   34       1
    38   19   36       1
@<TRIPOS>SUBSTRUCTURE
     1 QEI600      1 GROUP             4 A     QEI     0 **** QEI A 600
