@<TRIPOS>MOLECULE
./coach420/3erk/ligand.pdb
 25 28 0 0 0
SMALL
GASTEIGER

@<TRIPOS>ATOM
      1  CA1      -12.9880   14.7970   44.3980 C.3   800  SB4800      0.0414
      2  CA2      -13.2530   15.1750   45.8760 C.3   800  SB4800      0.0906
      3  NA3      -13.0720   16.6510   46.1480 N.3   800  SB4800     -0.2179
      4  CA4      -13.7500   17.6150   45.1990 C.3   800  SB4800      0.0906
      5  CA5      -13.5720   17.2100   43.7000 C.3   800  SB4800      0.0414
      6  CA6      -13.8090   15.6920   43.4140 C.3   800  SB4800      0.0899
      7  CB1      -14.5360   13.2100   37.9750 C.ar  800  SB4800      0.0039
      8  CB2      -14.5580   12.3140   36.8780 C.ar  800  SB4800      0.0297
      9  CB3      -13.3690   11.6650   36.4790 C.ar  800  SB4800      0.1401
     10  CB4      -12.1630   11.9040   37.1590 C.ar  800  SB4800      0.0297
     11  CB5      -12.1350   12.7950   38.2530 C.ar  800  SB4800      0.0039
     12  CB6      -13.3220   13.4750   38.6950 C.ar  800  SB4800      0.0193
     13  FB7      -13.3820   10.8070   35.4380 F     800  SB4800     -0.2042
     14  CC1      -16.5490   14.3810   41.7750 C.ar  800  SB4800      0.0414
     15  CC2      -15.3520   13.6930   41.3060 C.ar  800  SB4800      0.1031
     16  NC3      -15.4020   12.3420   41.0870 N.ar  800  SB4800     -0.2096
     17  CC4      -16.5450   11.6890   41.3090 C.ar  800  SB4800      0.2567
     18  NC5      -17.6910   12.2340   41.7400 N.ar  800  SB4800     -0.2096
     19  CC6      -17.7110   13.5640   41.9770 C.ar  800  SB4800      0.1035
     20  NC7      -16.5420   10.3960   41.0790 N.pl3 800  SB4800     -0.0860
     21  ND1      -13.4740   15.2840   42.0050 N.ar  800  SB4800     -0.3096
     22  CD2      -12.3750   15.6630   41.2650 C.ar  800  SB4800      0.1785
     23  ND3      -12.1510   15.2100   40.0160 N.ar  800  SB4800     -0.2239
     24  CD4      -13.2610   14.3660   39.8260 C.ar  800  SB4800      0.1002
     25  CD5      -14.1090   14.4140   41.0570 C.ar  800  SB4800      0.0968
@<TRIPOS>BOND
     1     1     6    1
     2     1     2    1
     3     2     3    1
     4     3     4    1
     5     4     5    1
     6     5     6    1
     7     6    21    1
     8     7     8   ar
     9     7    12   ar
    10     8     9   ar
    11     9    13    1
    12     9    10   ar
    13    10    11   ar
    14    11    12   ar
    15    12    24    1
    16    14    15   ar
    17    14    19   ar
    18    15    25    1
    19    15    16   ar
    20    16    17   ar
    21    17    20    1
    22    17    18   ar
    23    18    19   ar
    24    21    25   ar
    25    21    22   ar
    26    22    23   ar
    27    23    24   ar
    28    24    25   ar
