@<TRIPOS>MOLECULE
3qh2_3NM_2_ligand
   23    23     1     0     0
SMALL
NO_CHARGES


@<TRIPOS>ATOM
     1 N           40.1720    26.9880    13.2150 N.2          1 3NM900   0.0000
     2 P           41.6960    31.4570     7.5460 P.3          1 3NM900   0.0000
     3 S           42.2830    28.4240    12.8110 S.3          1 3NM900   0.0000
     4 C1          38.3400    27.9950    11.8430 C.3          1 3NM900   0.0000
     5 O1          43.2620    26.0990    14.8350 O.co2        1 3NM900   0.0000
     6 C2          39.7560    27.9450    12.3520 C.2          1 3NM900   0.0000
     7 O2          41.1880    25.2950    15.0390 O.co2        1 3NM900  -1.0000
     8 C3          41.4840    27.0650    13.5680 C.2          1 3NM900   0.0000
     9 O3          40.9630    31.0550     8.9160 O.3          1 3NM900   0.0000
    10 C4          42.0430    26.0660    14.5300 C.2          1 3NM900   0.0000
    11 O4          43.0910    31.7470     8.0420 O.co2        1 3NM900   0.0000
    12 C5          40.8150    28.9120    11.9620 C.2          1 3NM900   0.0000
    13 O5          41.0990    32.7940     7.1710 O.co2        1 3NM900  -1.0000
    14 C6          40.6160    30.0750    11.0260 C.3          1 3NM900   0.0000
    15 O6          41.6890    30.4510     6.4170 O.co2        1 3NM900  -1.0000
    16 C7          41.2500    29.8740     9.6540 C.3          1 3NM900   0.0000
    17 H1          38.2366    28.7711    11.2210 H            1 3NM900   0.0000
    18 H2          38.1308    27.1472    11.3558 H            1 3NM900   0.0000
    19 H3          37.7121    28.0999    12.6142 H            1 3NM900   0.0000
    20 H4          41.0195    30.8890    11.4439 H            1 3NM900   0.0000
    21 H5          39.6338    30.2159    10.9022 H            1 3NM900   0.0000
    22 H6          42.2384    29.7504     9.7422 H            1 3NM900   0.0000
    23 H7          40.8533    29.0756     9.2010 H            1 3NM900   0.0000
@<TRIPOS>BOND
     1    1    6       1
     2    1    8       2
     3    2    9       1
     4    2   11      ar
     5    2   13      ar
     6    2   15      ar
     7    3    8       1
     8    3   12       1
     9    4    6       1
    10    5   10      ar
    11    6   12       2
    12    7   10      ar
    13    8   10       1
    14    9   16       1
    15   12   14       1
    16   14   16       1
    17    4   17       1
    18    4   18       1
    19    4   19       1
    20   16   23       1
    21   16   22       1
    22   14   21       1
    23   14   20       1
@<TRIPOS>SUBSTRUCTURE
     1 3NM900      1 GROUP             4 B     3NM     0 **** 3NM B 900
