@<TRIPOS>MOLECULE
1ksk_URA_1_ligand
   12    12     1     0     0
SMALL
NO_CHARGES


@<TRIPOS>ATOM
     1 N1          51.5700     7.4560    -0.4620 N.pl3        1 URA232   0.0000
     2 C2          50.7030     8.5600    -0.4720 C.2          1 URA232   0.0000
     3 O2          49.8660     8.8420     0.4000 O.2          1 URA232   0.0000
     4 N3          50.8650     9.3480    -1.5940 N.pl3        1 URA232   0.0000
     5 C4          51.7520     9.1880    -2.6690 C.2          1 URA232   0.0000
     6 O4          51.7520    10.0110    -3.6060 O.2          1 URA232   0.0000
     7 C5          52.6280     8.0190    -2.5960 C.2          1 URA232   0.0000
     8 C6          52.5030     7.2040    -1.4910 C.2          1 URA232   0.0000
     9 H1          51.5247     6.8198     0.3082 H            1 URA232   0.0000
    10 H2          50.2649    10.1461    -1.6481 H            1 URA232   0.0000
    11 H3          53.2904     7.8191    -3.3180 H            1 URA232   0.0000
    12 H4          53.0966     6.4028    -1.4155 H            1 URA232   0.0000
@<TRIPOS>BOND
     1    1    2       1
     2    1    8       1
     3    2    3       2
     4    2    4       1
     5    4    5       1
     6    5    6       2
     7    5    7       1
     8    7    8       2
     9    1    9       1
    10    4   10       1
    11    7   11       1
    12    8   12       1
@<TRIPOS>SUBSTRUCTURE
     1 URA232      1 GROUP             4 A     URA     0 **** URA A 232
