@<TRIPOS>MOLECULE
4c01_QY9_2_ligand
   18    18     1     0     0
SMALL
NO_CHARGES


@<TRIPOS>ATOM
     1 CAA         54.0840   -69.1250   -13.1130 C.3          1 QY91278   0.0000
     2 OAB         52.8950   -67.0550   -13.1050 O.2          1 QY91278   0.0000
     3 CAC         51.5600   -69.0960    -8.3230 C.ar         1 QY91278   0.0000
     4 CAD         51.3960   -67.8700    -8.9450 C.ar         1 QY91278   0.0000
     5 CAE         51.7500   -70.2440    -9.0710 C.ar         1 QY91278   0.0000
     6 CAF         51.4260   -67.8040   -10.3270 C.ar         1 QY91278   0.0000
     7 CAG         51.7790   -70.1650   -10.4500 C.ar         1 QY91278   0.0000
     8 OAH         51.6540   -68.8710   -12.4840 O.3          1 QY91278   0.0000
     9 CAI         52.8340   -68.2720   -12.9760 C.2          1 QY91278   0.0000
    10 CAJ         51.6190   -68.9490   -11.0800 C.ar         1 QY91278   0.0000
    11 HAA1        53.8474   -70.0872   -12.9779 H            1 QY91278   0.0000
    12 HAA2        54.4728   -69.0024   -14.0261 H            1 QY91278   0.0000
    13 HAA3        54.7544   -68.8468   -12.4252 H            1 QY91278   0.0000
    14 HAC         51.5409   -69.1521    -7.3248 H            1 QY91278   0.0000
    15 HAD         51.2575   -67.0418    -8.4019 H            1 QY91278   0.0000
    16 HAE         51.8658   -71.1268    -8.6158 H            1 QY91278   0.0000
    17 HAF         51.3074   -66.9228   -10.7847 H            1 QY91278   0.0000
    18 HAG         51.9166   -70.9931   -10.9934 H            1 QY91278   0.0000
@<TRIPOS>BOND
     1    1    9       1
     2    2    9       2
     3    3    4      ar
     4    3    5      ar
     5    4    6      ar
     6    5    7      ar
     7    6   10      ar
     8    7   10      ar
     9    8    9       1
    10    8   10       1
    11    1   11       1
    12    1   12       1
    13    1   13       1
    14    3   14       1
    15    4   15       1
    16    5   16       1
    17    6   17       1
    18    7   18       1
@<TRIPOS>SUBSTRUCTURE
     1 QY91278     1 GROUP             4 B     QY9     0 **** QY9 B1278
