@<TRIPOS>MOLECULE
3i4l_ANP_1_ligand
   44    46     1     0     0
SMALL
NO_CHARGES


@<TRIPOS>ATOM
     1 PG          39.4090     8.8420    27.8350 P.3          1 ANP589   0.0000
     2 O1G         38.7140     8.6040    29.1600 O.co2        1 ANP589   0.0000
     3 O2G         38.8980    10.0470    27.0740 O.co2        1 ANP589  -1.0000
     4 O3G         40.9120     8.8010    27.9450 O.co2        1 ANP589  -1.0000
     5 PB          40.2100     6.5660    25.9970 P.3          1 ANP589   0.0000
     6 O1B         39.4800     5.7790    24.9310 O.co2        1 ANP589   0.0000
     7 O2B         41.0870     5.8010    26.9620 O.co2        1 ANP589  -1.0000
     8 N3B         38.9790     7.4250    26.8980 N.3          1 ANP589   0.0000
     9 PA          42.6860     7.3970    24.9300 P.3          1 ANP589   0.0000
    10 O1A         42.7180     6.5830    23.6620 O.co2        1 ANP589   0.0000
    11 O2A         43.3420     6.8430    26.1720 O.co2        1 ANP589  -1.0000
    12 O3A         41.1320     7.6780    25.2660 O.3          1 ANP589   0.0000
    13 O5'         43.3420     8.8530    24.6140 O.3          1 ANP589   0.0000
    14 C5'         44.7110     9.0410    24.2210 C.3          1 ANP589   0.0000
    15 C4'         44.9830    10.5450    24.0710 C.3          1 ANP589   0.0000
    16 O4'         46.2950    11.0310    24.4450 O.3          1 ANP589   0.0000
    17 C3'         44.7490    11.1050    22.6890 C.3          1 ANP589   0.0000
    18 O3'         43.4330    11.5990    22.5530 O.3          1 ANP589   0.0000
    19 C2'         45.6280    12.3130    22.6450 C.3          1 ANP589   0.0000
    20 O2'         46.5200    12.0730    21.5820 O.3          1 ANP589   0.0000
    21 C1'         46.4260    12.3620    23.9210 C.3          1 ANP589   0.0000
    22 N9          47.8250    12.7170    23.6200 N.pl3        1 ANP589   0.0000
    23 C8          48.9010    12.2940    24.3050 C.2          1 ANP589   0.0000
    24 N7          50.0560    12.7690    23.7950 N.2          1 ANP589   0.0000
    25 C5          49.7240    13.5240    22.7430 C.ar         1 ANP589   0.0000
    26 C6          50.4490    14.3170    21.7430 C.ar         1 ANP589   0.0000
    27 N6          51.7800    14.3820    21.8020 N.pl3        1 ANP589   0.0000
    28 N1          49.7440    14.9750    20.7960 N.ar         1 ANP589   0.0000
    29 C2          48.3990    14.9250    20.7440 C.ar         1 ANP589   0.0000
    30 N3          47.6620    14.2180    21.6170 N.ar         1 ANP589   0.0000
    31 C4          48.2530    13.5030    22.6210 C.ar         1 ANP589   0.0000
    32 H3B         38.2868     7.7149    26.2371 H            1 ANP589   0.0000
    33 H5'1        44.8760     8.5813    23.3484 H            1 ANP589   0.0000
    34 H5'2        45.3163     8.6583    24.9190 H            1 ANP589   0.0000
    35 H4'         44.3322    11.0075    24.6732 H            1 ANP589   0.0000
    36 H3'         44.9792    10.4464    21.9726 H            1 ANP589   0.0000
    37 H6          43.3072    11.9627    21.6300 H            1 ANP589   0.0000
    38 H2'         45.1005    13.1509    22.5048 H            1 ANP589   0.0000
    39 H8          47.4583    12.0725    21.9279 H            1 ANP589   0.0000
    40 H1'         46.0278    13.0255    24.5545 H            1 ANP589   0.0000
    41 H10         48.8511    11.6941    25.1036 H            1 ANP589   0.0000
    42 H11         52.2848    14.9191    21.1262 H            1 ANP589   0.0000
    43 H12         52.2730    13.8936    22.5220 H            1 ANP589   0.0000
    44 H13         47.9287    15.4361    20.0246 H            1 ANP589   0.0000
@<TRIPOS>BOND
     1    1    2      ar
     2    1    3      ar
     3    1    4      ar
     4    1    8       1
     5    5    6      ar
     6    5    7      ar
     7    5    8       1
     8    5   12       1
     9    9   10      ar
    10    9   11      ar
    11    9   12       1
    12    9   13       1
    13   13   14       1
    14   14   15       1
    15   15   16       1
    16   15   17       1
    17   16   21       1
    18   17   18       1
    19   17   19       1
    20   19   20       1
    21   19   21       1
    22   21   22       1
    23   22   23       1
    24   22   31       1
    25   23   24       2
    26   24   25       1
    27   25   26      ar
    28   25   31      ar
    29   26   27       1
    30   26   28      ar
    31   28   29      ar
    32   29   30      ar
    33   30   31      ar
    34   29   44       1
    35   27   43       1
    36   27   42       1
    37    8   32       1
    38   23   41       1
    39   14   33       1
    40   14   34       1
    41   15   35       1
    42   17   36       1
    43   18   37       1
    44   19   38       1
    45   20   39       1
    46   21   40       1
@<TRIPOS>SUBSTRUCTURE
     1 ANP589      1 GROUP             4 A     ANP     0 **** ANP A 589
