@<TRIPOS>MOLECULE
2w0w_LZS_1_ligand
   74    78     1     0     0
SMALL
NO_CHARGES


@<TRIPOS>ATOM
     1 F85         65.7810     5.2430    75.4520 F            1 LZS1454   0.0000
     2 C83         66.3970     4.0770    75.5100 C.3          1 LZS1454   0.0000
     3 F81         65.6370     3.1700    74.9200 F            1 LZS1454   0.0000
     4 F83         67.5500     4.1610    74.8680 F            1 LZS1454   0.0000
     5 C16         66.6100     3.6790    76.9730 C.3          1 LZS1454   0.0000
     6 S12         68.0630     4.2070    77.6140 S.o2         1 LZS1454   0.0000
     7 O18         68.2360     5.6180    77.4010 O.2          1 LZS1454   0.0000
     8 O17         69.1350     3.4810    76.9870 O.2          1 LZS1454   0.0000
     9 N8          68.1010     3.9410    79.1900 N.pl3        1 LZS1454   0.0000
    10 C3          67.2490     4.5670    80.0330 C.ar         1 LZS1454   0.0000
    11 C1          67.3040     4.3410    81.4090 C.ar         1 LZS1454   0.0000
    12 C2          66.4080     5.0110    82.2390 C.ar         1 LZS1454   0.0000
    13 C6          66.4390     4.8010    83.6170 C.ar         1 LZS1454   0.0000
    14 C11         67.3740     3.9230    84.1710 C.ar         1 LZS1454   0.0000
    15 O15         67.4300     3.6820    85.5270 O.3          1 LZS1454   0.0000
    16 C22         67.1630     4.6870    86.5050 C.3          1 LZS1454   0.0000
    17 C9          68.2650     3.2580    83.3410 C.ar         1 LZS1454   0.0000
    18 O13         69.1770     2.4000    83.8940 O.3          1 LZS1454   0.0000
    19 C19         68.9990     0.9900    83.7900 C.3          1 LZS1454   0.0000
    20 C23         69.9790     0.4850    82.7360 C.3          1 LZS1454   0.0000
    21 C27         71.1090    -0.2870    83.4160 C.3          1 LZS1454   0.0000
    22 C26         69.9720    -1.0390    82.7270 C.3          1 LZS1454   0.0000
    23 C4          68.2360     3.4630    81.9630 C.ar         1 LZS1454   0.0000
    24 N5          65.5050     5.8510    81.6970 N.ar         1 LZS1454   1.0000
    25 C10         65.4660     6.0690    80.3570 C.ar         1 LZS1454   0.0000
    26 N7          66.3290     5.4250    79.5450 N.ar         1 LZS1454   0.0000
    27 N14         64.5210     6.9380    79.7920 N.pl3        1 LZS1454   0.0000
    28 C20         64.3410     6.9760    78.3410 C.3          1 LZS1454   0.0000
    29 C24         64.1840     8.4160    77.8870 C.2          1 LZS1454   0.0000
    30 C29         64.1440     8.7300    76.5400 C.2          1 LZS1454   0.0000
    31 C31         64.0100    10.0610    76.1340 C.2          1 LZS1454   0.0000
    32 N32         63.9010    11.1120    76.9770 N.pl3        1 LZS1454   0.0000
    33 C34         63.7520    12.4560    76.4020 C.3          1 LZS1454   0.0000
    34 C35         62.2960    12.9290    76.3980 C.3          1 LZS1454   0.0000
    35 C37         61.3490    11.9570    75.7020 C.3          1 LZS1454   0.0000
    36 C36         62.1800    14.3060    75.7560 C.3          1 LZS1454   0.0000
    37 C30         63.9290    10.9160    78.3790 C.2          1 LZS1454   0.0000
    38 O33         63.8330    11.8830    79.1720 O.2          1 LZS1454   0.0000
    39 C28         64.0710     9.5230    78.8850 C.2          1 LZS1454   0.0000
    40 C25         64.1140     9.2200    80.3710 C.3          1 LZS1454   0.0000
    41 C21         63.6930     7.7770    80.6550 C.3          1 LZS1454   0.0000
    42 H1          66.5823     2.6813    77.0352 H            1 LZS1454   0.0000
    43 H2          65.8661     4.0677    77.5167 H            1 LZS1454   0.0000
    44 H3          68.7701     3.2970    79.5608 H            1 LZS1454   0.0000
    45 H4          65.7911     5.2795    84.2097 H            1 LZS1454   0.0000
    46 H5          67.2604     4.2958    87.4201 H            1 LZS1454   0.0000
    47 H6          67.8109     5.4406    86.3940 H            1 LZS1454   0.0000
    48 H7          66.2307     5.0286    86.3860 H            1 LZS1454   0.0000
    49 H8          68.0610     0.7832    83.5120 H            1 LZS1454   0.0000
    50 H9          69.1893     0.5553    84.6702 H            1 LZS1454   0.0000
    51 H10         70.1431     1.0032    81.8966 H            1 LZS1454   0.0000
    52 H11         71.1811    -0.2935    84.4134 H            1 LZS1454   0.0000
    53 H12         72.0253    -0.2891    83.0155 H            1 LZS1454   0.0000
    54 H13         70.1443    -1.5345    81.8757 H            1 LZS1454   0.0000
    55 H14         69.3001    -1.5389    83.2735 H            1 LZS1454   0.0000
    56 H15         68.8827     2.9812    81.3717 H            1 LZS1454   0.0000
    57 H16         63.5227     6.4574    78.0931 H            1 LZS1454   0.0000
    58 H17         65.1397     6.5714    77.8955 H            1 LZS1454   0.0000
    59 H18         64.2110     8.0037    75.8559 H            1 LZS1454   0.0000
    60 H19         63.9937    10.2486    75.1519 H            1 LZS1454   0.0000
    61 H20         64.0879    12.4418    75.4602 H            1 LZS1454   0.0000
    62 H21         64.2972    13.0983    76.9407 H            1 LZS1454   0.0000
    63 H22         62.0008    13.0117    77.3499 H            1 LZS1454   0.0000
    64 H23         60.4176    12.3198    75.7321 H            1 LZS1454   0.0000
    65 H24         61.6310    11.8412    74.7496 H            1 LZS1454   0.0000
    66 H25         61.3774    11.0726    76.1679 H            1 LZS1454   0.0000
    67 H26         61.2234    14.5974    75.7627 H            1 LZS1454   0.0000
    68 H27         62.7318    14.9617    76.2714 H            1 LZS1454   0.0000
    69 H28         62.5087    14.2627    74.8126 H            1 LZS1454   0.0000
    70 H29         63.4923     9.8409    80.8484 H            1 LZS1454   0.0000
    71 H30         65.0461     9.3594    80.7053 H            1 LZS1454   0.0000
    72 H31         63.8529     7.5512    81.6160 H            1 LZS1454   0.0000
    73 H32         62.7251     7.6487    80.4391 H            1 LZS1454   0.0000
    74 H33         64.8527     6.3218    82.2910 H            1 LZS1454   0.0000
@<TRIPOS>BOND
     1    1    2       1
     2    2    3       1
     3    2    4       1
     4    2    5       1
     5    5    6       1
     6    6    7       2
     7    6    8       2
     8    6    9       1
     9    9   10       1
    10   10   11      ar
    11   10   26      ar
    12   11   12      ar
    13   11   23      ar
    14   12   13      ar
    15   12   24      ar
    16   13   14      ar
    17   14   15       1
    18   14   17      ar
    19   15   16       1
    20   17   18       1
    21   17   23      ar
    22   18   19       1
    23   19   20       1
    24   20   21       1
    25   20   22       1
    26   21   22       1
    27   24   25      ar
    28   25   26      ar
    29   25   27       1
    30   27   28       1
    31   27   41       1
    32   28   29       1
    33   29   30       1
    34   29   39       2
    35   30   31       2
    36   31   32       1
    37   32   33       1
    38   32   37       1
    39   33   34       1
    40   34   35       1
    41   34   36       1
    42   37   38       2
    43   37   39       1
    44   39   40       1
    45   40   41       1
    46    5   42       1
    47    5   43       1
    48    9   44       1
    49   13   45       1
    50   16   46       1
    51   16   47       1
    52   16   48       1
    53   19   49       1
    54   19   50       1
    55   20   51       1
    56   21   52       1
    57   21   53       1
    58   22   54       1
    59   22   55       1
    60   23   56       1
    61   28   57       1
    62   28   58       1
    63   30   59       1
    64   31   60       1
    65   33   61       1
    66   33   62       1
    67   34   63       1
    68   35   64       1
    69   35   65       1
    70   35   66       1
    71   36   67       1
    72   36   68       1
    73   36   69       1
    74   40   70       1
    75   40   71       1
    76   41   72       1
    77   41   73       1
    78   24   74       1
@<TRIPOS>SUBSTRUCTURE
     1 LZS1454     1 GROUP             4 A     LZS     0 **** LZS A1454
