@<TRIPOS>MOLECULE
3ggj_25H_2_ligand
   32    33     1     0     0
SMALL
NO_CHARGES


@<TRIPOS>ATOM
     1 N1          16.8940    17.7240    20.4480 N.pl3        1 25H218   0.0000
     2 C8          18.5080    14.0330    18.4460 C.2          1 25H218   0.0000
     3 C6          18.0000    17.3130    19.7720 C.2          1 25H218   0.0000
     4 N7          19.0050    15.2880    18.6150 N.2          1 25H218   0.0000
     5 C5          18.0630    15.9930    19.2980 C.2          1 25H218   0.0000
     6 C2          15.8570    16.8750    20.6680 C.2          1 25H218   0.0000
     7 OAD         18.8920    10.6050    14.8670 O.co2        1 25H218   0.0000
     8 PAT         17.8250    10.8910    13.8290 P.3          1 25H218   0.0000
     9 OAE         16.8660     9.7470    13.5450 O.co2        1 25H218  -1.0000
    10 OAC         18.4130    11.4580    12.5570 O.co2        1 25H218  -1.0000
    11 CAJ         16.7860    12.2150    14.5120 C.3          1 25H218   0.0000
    12 CAH         16.4600    11.8870    15.9720 C.3          1 25H218   0.0000
    13 OAN         15.9770    13.0550    16.6610 O.3          1 25H218   0.0000
    14 CAG         15.3620    12.7450    17.9100 C.3          1 25H218   0.0000
    15 CAI         16.4080    12.7460    19.0190 C.3          1 25H218   0.0000
    16 N9          17.2710    13.9420    18.9960 N.pl3        1 25H218   0.0000
    17 C4          16.9840    15.1370    19.5380 C.2          1 25H218   0.0000
    18 N3          15.8990    15.5940    20.2140 N.2          1 25H218   0.0000
    19 N2          14.7680    17.3070    21.3520 N.pl3        1 25H218   0.0000
    20 O6          18.9960    18.1560    19.5860 O.2          1 25H218   0.0000
    21 H1          16.8436    18.6633    20.7874 H            1 25H218   0.0000
    22 H2          18.9852    13.2858    17.9834 H            1 25H218   0.0000
    23 HAJ1        15.9383    12.2817    13.9857 H            1 25H218   0.0000
    24 HAJ2        17.2769    13.0849    14.4650 H            1 25H218   0.0000
    25 HAH1        17.2871    11.5564    16.4266 H            1 25H218   0.0000
    26 HAH2        15.7575    11.1758    15.9996 H            1 25H218   0.0000
    27 HAG1        14.9379    11.8410    17.8553 H            1 25H218   0.0000
    28 HAG2        14.6622    13.4297    18.1138 H            1 25H218   0.0000
    29 HAI1        16.9840    11.9353    18.9145 H            1 25H218   0.0000
    30 HAI2        15.9377    12.7093    19.9007 H            1 25H218   0.0000
    31 H11         14.0020    16.6856    21.5165 H            1 25H218   0.0000
    32 H12         14.7313    18.2468    21.6917 H            1 25H218   0.0000
@<TRIPOS>BOND
     1    1    3       1
     2    1    6       1
     3    2    4       2
     4    2   16       1
     5    3    5       1
     6    3   20       2
     7    4    5       1
     8    5   17       2
     9    6   18       2
    10    6   19       1
    11    7    8      ar
    12    8    9      ar
    13    8   10      ar
    14    8   11       1
    15   11   12       1
    16   12   13       1
    17   13   14       1
    18   14   15       1
    19   15   16       1
    20   16   17       1
    21   17   18       1
    22    1   21       1
    23    2   22       1
    24   19   32       1
    25   19   31       1
    26   11   23       1
    27   11   24       1
    28   12   25       1
    29   12   26       1
    30   14   27       1
    31   14   28       1
    32   15   29       1
    33   15   30       1
@<TRIPOS>SUBSTRUCTURE
     1 25H218      1 GROUP             4 B     25H     0 **** 25H B 218
