@<TRIPOS>MOLECULE
4u0p_SAH_1_ligand
   19    18     1     0     0
SMALL
NO_CHARGES


@<TRIPOS>ATOM
     1 N            9.0030    57.8640    28.6280 N.3          1 SAH303   0.0000
     2 CA          10.2520    57.1430    28.9090 C.3          1 SAH303   0.0000
     3 CB          11.4550    57.6500    28.1030 C.3          1 SAH303   0.0000
     4 CG          11.8220    56.7860    26.9660 C.3          1 SAH303   0.0000
     5 SD          10.8560    57.3830    25.5800 S.3          1 SAH303   0.0000
     6 C           10.4830    57.4400    30.3220 C.2          1 SAH303   0.0000
     7 O           11.4950    58.0450    30.6830 O.co2        1 SAH303   0.0000
     8 OXT          9.5780    57.1490    31.0650 O.co2        1 SAH303  -1.0000
     9 C5'          9.7330    55.9920    25.3830 C.3          1 SAH303   0.0000
    10 H1           9.2133    58.8068    28.3694 H            1 SAH303   0.0000
    11 HA          10.1278    56.1601    28.7730 H            1 SAH303   0.0000
    12 HB1         12.2415    57.7122    28.7174 H            1 SAH303   0.0000
    13 HB2         11.2358    58.5592    27.7491 H            1 SAH303   0.0000
    14 HG1         11.5960    55.8323    27.1645 H            1 SAH303   0.0000
    15 HG2         12.7995    56.8631    26.7697 H            1 SAH303   0.0000
    16 H5'1         9.1073    56.1736    24.6244 H            1 SAH303   0.0000
    17 H5'2        10.2590    55.1636    25.1903 H            1 SAH303   0.0000
    18 H5'3         9.2083    55.8654    26.2248 H            1 SAH303   0.0000
    19 H10          8.5191    57.4128    27.8782 H            1 SAH303   0.0000
@<TRIPOS>BOND
     1    1    2       1
     2    2    3       1
     3    2    6       1
     4    3    4       1
     5    4    5       1
     6    5    9       1
     7    6    7      ar
     8    6    8      ar
     9    9   18       1
    10    1   10       1
    11    2   11       1
    12    3   12       1
    13    3   13       1
    14    4   14       1
    15    4   15       1
    16    1   19       1
    17    9   16       1
    18    9   17       1
@<TRIPOS>SUBSTRUCTURE
     1 SAH303      1 GROUP             4 B     SAH     0 **** SAH B 303
