@<TRIPOS>MOLECULE
1sjw_NGV_1_ligand
   42    45     1     0     0
SMALL
NO_CHARGES


@<TRIPOS>ATOM
     1 O17          9.5710     1.6690    12.4630 O.2          1 NGV333   0.0000
     2 C14          9.6970     2.0820    13.6000 C.2          1 NGV333   0.0000
     3 O16         10.7930     2.9880    13.8560 O.3          1 NGV333   0.0000
     4 C15         11.6100     3.5300    12.8160 C.3          1 NGV333   0.0000
     5 C10          8.8960     1.6060    14.7770 C.ar         1 NGV333   0.0000
     6 C9           8.8840     2.3600    15.9560 C.ar         1 NGV333   0.0000
     7 C13          9.5840     3.6880    16.1120 C.3          1 NGV333   0.0000
     8 C8           8.1880     1.8960    17.0670 C.ar         1 NGV333   0.0000
     9 C19          8.2290     0.3660    14.7500 C.ar         1 NGV333   0.0000
    10 C20          7.5210    -0.0620    15.8750 C.ar         1 NGV333   0.0000
    11 C7           7.5160     0.6870    17.0480 C.ar         1 NGV333   0.0000
    12 O22          6.8950     0.3200    18.0890 O.3          1 NGV333   0.0000
    13 C11          8.1900    -0.4470    13.5970 C.ar         1 NGV333   0.0000
    14 C18          7.4780    -1.6560    13.5670 C.ar         1 NGV333   0.0000
    15 C17          6.7890    -2.1270    14.6850 C.ar         1 NGV333   0.0000
    16 C5           6.1150    -3.3570    14.6320 C.2          1 NGV333   0.0000
    17 O20          5.5030    -3.7640    15.6580 O.2          1 NGV333   0.0000
    18 C6           6.8070    -1.3550    15.8440 C.ar         1 NGV333   0.0000
    19 O21          6.1710    -1.7170    16.9570 O.3          1 NGV333   0.0000
    20 C12          7.4620    -2.4090    12.3950 C.2          1 NGV333   0.0000
    21 O18          8.1230    -1.9440    11.3440 O.2          1 NGV333   0.0000
    22 C21          6.7750    -3.6170    12.3290 C.ar         1 NGV333   0.0000
    23 C1           6.7620    -4.3610    11.1570 C.ar         1 NGV333   0.0000
    24 C2           6.0670    -5.5600    11.1120 C.ar         1 NGV333   0.0000
    25 C3           5.3890    -6.0610    12.2060 C.ar         1 NGV333   0.0000
    26 C16          6.0840    -4.1020    13.4450 C.ar         1 NGV333   0.0000
    27 C4           5.3890    -5.3120    13.3740 C.ar         1 NGV333   0.0000
    28 O19          4.7270    -5.7750    14.4230 O.3          1 NGV333   0.0000
    29 H1          12.3039     4.1293    13.2153 H            1 NGV333   0.0000
    30 H2          12.0576     2.7851    12.3213 H            1 NGV333   0.0000
    31 H3          11.0401     4.0549    12.1837 H            1 NGV333   0.0000
    32 H4           9.4355     4.0364    17.0375 H            1 NGV333   0.0000
    33 H5          10.5642     3.5687    15.9540 H            1 NGV333   0.0000
    34 H6           9.2161     4.3388    15.4478 H            1 NGV333   0.0000
    35 H7           8.1730     2.4496    17.8996 H            1 NGV333   0.0000
    36 H8           6.8970     0.9006    18.9032 H            1 NGV333   0.0000
    37 H9           8.6836    -0.1533    12.7784 H            1 NGV333   0.0000
    38 H10          6.1922    -1.1226    17.7609 H            1 NGV333   0.0000
    39 H11          7.2517    -4.0337    10.3489 H            1 NGV333   0.0000
    40 H12          6.0563    -6.0800    10.2579 H            1 NGV333   0.0000
    41 H13          4.9118    -6.9384    12.1577 H            1 NGV333   0.0000
    42 H14          4.7128    -5.2527    15.2756 H            1 NGV333   0.0000
@<TRIPOS>BOND
     1    1    2       2
     2    2    3       1
     3    2    5       1
     4    3    4       1
     5    5    6      ar
     6    5    9      ar
     7    6    7       1
     8    6    8      ar
     9    8   11      ar
    10    9   10      ar
    11    9   13      ar
    12   10   11      ar
    13   10   18      ar
    14   11   12       1
    15   13   14      ar
    16   14   15      ar
    17   14   20       1
    18   15   16       1
    19   15   18      ar
    20   16   17       2
    21   16   26       1
    22   18   19       1
    23   20   21       2
    24   20   22       1
    25   22   23      ar
    26   22   26      ar
    27   23   24      ar
    28   24   25      ar
    29   25   27      ar
    30   26   27      ar
    31   27   28       1
    32    4   29       1
    33    4   30       1
    34    4   31       1
    35    7   32       1
    36    7   33       1
    37    7   34       1
    38    8   35       1
    39   12   36       1
    40   13   37       1
    41   19   38       1
    42   23   39       1
    43   24   40       1
    44   25   41       1
    45   28   42       1
@<TRIPOS>SUBSTRUCTURE
     1 NGV333      1 GROUP             4 A     NGV     0 **** NGV A 333
