@<TRIPOS>MOLECULE
1p91_SAM_1_ligand
   49    51     1     0     0
SMALL
NO_CHARGES


@<TRIPOS>ATOM
     1 N           24.6500    28.6250    42.8880 N.3          1 SAM1401   0.0000
     2 CA          23.5890    28.0780    42.0600 C.3          1 SAM1401   0.0000
     3 C           24.1110    27.6990    40.6340 C.2          1 SAM1401   0.0000
     4 O           25.3100    27.7670    40.3570 O.co2        1 SAM1401   0.0000
     5 OXT         23.3380    27.2980    39.7570 O.co2        1 SAM1401  -1.0000
     6 CB          22.4410    29.1400    42.1220 C.3          1 SAM1401   0.0000
     7 CG          22.1620    30.0010    40.8370 C.3          1 SAM1401   0.0000
     8 SD          21.1170    31.4610    41.2850 S.3          1 SAM1401   1.0000
     9 CE          20.8850    32.4880    39.8150 C.3          1 SAM1401   0.0000
    10 C5'         19.3930    30.9250    41.7280 C.3          1 SAM1401   0.0000
    11 C4'         19.1590    29.3900    41.9080 C.3          1 SAM1401   0.0000
    12 O4'         18.2130    29.1510    42.9780 O.3          1 SAM1401   0.0000
    13 C3'         18.5530    28.6810    40.6710 C.3          1 SAM1401   0.0000
    14 O3'         19.6050    28.2680    39.7680 O.3          1 SAM1401   0.0000
    15 C2'         17.7450    27.4890    41.2530 C.3          1 SAM1401   0.0000
    16 O2'         18.4520    26.2200    41.1880 O.3          1 SAM1401   0.0000
    17 C1'         17.3630    27.9640    42.7020 C.3          1 SAM1401   0.0000
    18 N9          15.9200    28.2910    42.8350 N.pl3        1 SAM1401   0.0000
    19 C8          15.0590    29.2770    42.1840 C.2          1 SAM1401   0.0000
    20 N7          13.9000    29.0390    42.8000 N.2          1 SAM1401   0.0000
    21 C5          13.9000    28.0860    43.6990 C.ar         1 SAM1401   0.0000
    22 C6          12.8230    27.5720    44.5820 C.ar         1 SAM1401   0.0000
    23 N6          11.4990    28.1460    44.5410 N.pl3        1 SAM1401   0.0000
    24 N1          13.1470    26.5880    45.3830 N.ar         1 SAM1401   0.0000
    25 C2          14.5060    26.0200    45.4250 C.ar         1 SAM1401   0.0000
    26 N3          15.4670    26.5310    44.6160 N.ar         1 SAM1401   0.0000
    27 C4          15.1270    27.5390    43.7940 C.ar         1 SAM1401   0.0000
    28 H1          24.2839    28.8559    43.7895 H            1 SAM1401   0.0000
    29 HA          23.2579    27.2421    42.4979 H            1 SAM1401   0.0000
    30 HB1         22.6624    29.7743    42.8627 H            1 SAM1401   0.0000
    31 HB2         21.5963    28.6522    42.3423 H            1 SAM1401   0.0000
    32 HG1         21.6820    29.4431    40.1600 H            1 SAM1401   0.0000
    33 HG2         23.0295    30.3175    40.4534 H            1 SAM1401   0.0000
    34 HE1         20.3209    33.2803    40.0475 H            1 SAM1401   0.0000
    35 HE2         21.7751    32.7988    39.4817 H            1 SAM1401   0.0000
    36 HE3         20.4307    31.9528    39.1028 H            1 SAM1401   0.0000
    37 H5'1        18.7816    31.2416    41.0028 H            1 SAM1401   0.0000
    38 H5'2        19.1487    31.3717    42.5887 H            1 SAM1401   0.0000
    39 H4'         20.0285    28.9536    42.1393 H            1 SAM1401   0.0000
    40 H3'         17.9325    29.3063    40.1978 H            1 SAM1401   0.0000
    41 H14         19.2029    27.8120    38.9740 H            1 SAM1401   0.0000
    42 H2'         16.9009    27.4001    40.7242 H            1 SAM1401   0.0000
    43 H16         17.8788    25.4988    41.5770 H            1 SAM1401   0.0000
    44 H1'         17.5937    27.2405    43.3527 H            1 SAM1401   0.0000
    45 H18         15.2784    29.9453    41.4732 H            1 SAM1401   0.0000
    46 H19         10.7815    27.7914    45.1406 H            1 SAM1401   0.0000
    47 H20         11.2994    28.8982    43.9130 H            1 SAM1401   0.0000
    48 H21         14.7178    25.2643    46.0447 H            1 SAM1401   0.0000
    49 H22         25.3782    27.9469    42.9877 H            1 SAM1401   0.0000
@<TRIPOS>BOND
     1    1    2       1
     2    2    3       1
     3    2    6       1
     4    3    4      ar
     5    3    5      ar
     6    6    7       1
     7    7    8       1
     8    8    9       1
     9    8   10       1
    10   10   11       1
    11   11   12       1
    12   11   13       1
    13   12   17       1
    14   13   14       1
    15   13   15       1
    16   15   16       1
    17   15   17       1
    18   17   18       1
    19   18   19       1
    20   18   27       1
    21   19   20       2
    22   20   21       1
    23   21   22      ar
    24   21   27      ar
    25   22   23       1
    26   22   24      ar
    27   24   25      ar
    28   25   26      ar
    29   26   27      ar
    30   25   48       1
    31    1   28       1
    32    2   29       1
    33    1   49       1
    34    6   30       1
    35    6   31       1
    36    7   32       1
    37    7   33       1
    38    9   34       1
    39    9   35       1
    40    9   36       1
    41   10   37       1
    42   10   38       1
    43   11   39       1
    44   13   40       1
    45   14   41       1
    46   15   42       1
    47   16   43       1
    48   17   44       1
    49   19   45       1
    50   23   46       1
    51   23   47       1
@<TRIPOS>SUBSTRUCTURE
     1 SAM1401     1 GROUP             4 A     SAM     0 **** SAM A1401
