@<TRIPOS>MOLECULE
4loc_OXM_2_ligand
    8     7     1     0     0
SMALL
NO_CHARGES


@<TRIPOS>ATOM
     1 C1         -37.3530    -6.0870    11.8770 C.2          1 OXM1105   0.0000
     2 N1         -37.4800    -6.7990    10.7810 N.am         1 OXM1105   0.0000
     3 O1         -36.3440    -6.0860    12.4940 O.2          1 OXM1105   0.0000
     4 C2         -38.4280    -5.1970    12.2290 C.2          1 OXM1105   0.0000
     5 O2         -39.2390    -4.8800    11.3120 O.co2        1 OXM1105   0.0000
     6 O3         -38.4560    -4.7310    13.3700 O.co2        1 OXM1105  -1.0000
     7 H1         -38.3416    -6.7863    10.2735 H            1 OXM1105   0.0000
     8 H2         -36.7151    -7.3539    10.4538 H            1 OXM1105   0.0000
@<TRIPOS>BOND
     1    1    2      am
     2    1    3       2
     3    1    4       1
     4    4    5      ar
     5    4    6      ar
     6    2    7       1
     7    2    8       1
@<TRIPOS>SUBSTRUCTURE
     1 OXM1105     1 GROUP             4 A     OXM     0 **** OXM A1105
