@<TRIPOS>MOLECULE
2w2x_GSP_1_ligand
   45    47     1     0     0
SMALL
NO_CHARGES


@<TRIPOS>ATOM
     1 PG          30.4020    12.0090    11.5170 P.3          1 GSP1178   0.0000
     2 O3B         31.1410    12.4130    10.1460 O.3          1 GSP1178   0.0000
     3 S1G         30.8870    13.0690    12.7670 S.2          1 GSP1178   0.0000
     4 O2G         28.8920    12.1430    11.2470 O.co2        1 GSP1178  -1.0000
     5 O3G         30.7150    10.5410    11.8610 O.co2        1 GSP1178  -1.0000
     6 PB          31.5900    11.3380     9.0390 P.3          1 GSP1178   0.0000
     7 O1B         32.5420    10.3440     9.5620 O.co2        1 GSP1178   0.0000
     8 O2B         30.4220    10.6310     8.4790 O.co2        1 GSP1178  -1.0000
     9 PA          31.4840    13.0610     6.8930 P.3          1 GSP1178   0.0000
    10 O1A         31.0550    12.0390     5.9080 O.co2        1 GSP1178   0.0000
    11 O2A         30.3370    13.7370     7.5410 O.co2        1 GSP1178  -1.0000
    12 O3A         32.3470    12.2890     7.9990 O.3          1 GSP1178   0.0000
    13 O5'         32.5370    14.0770     6.2430 O.3          1 GSP1178   0.0000
    14 C5'         33.1940    15.0470     7.0260 C.3          1 GSP1178   0.0000
    15 C4'         33.9010    16.0390     6.0980 C.3          1 GSP1178   0.0000
    16 O4'         34.9030    15.3780     5.3360 O.3          1 GSP1178   0.0000
    17 C3'         32.9170    16.6620     5.1230 C.3          1 GSP1178   0.0000
    18 O3'         33.0430    18.0600     5.1420 O.3          1 GSP1178   0.0000
    19 C2'         33.3370    16.1810     3.7620 C.3          1 GSP1178   0.0000
    20 O2'         33.3260    17.2710     2.8690 O.3          1 GSP1178   0.0000
    21 C1'         34.7510    15.6660     3.9620 C.3          1 GSP1178   0.0000
    22 N9          34.8840    14.4560     3.1370 N.pl3        1 GSP1178   0.0000
    23 C8          34.1570    13.2960     3.2540 C.2          1 GSP1178   0.0000
    24 N7          34.5660    12.4300     2.2920 N.2          1 GSP1178   1.0000
    25 C5          35.5450    13.0360     1.5680 C.2          1 GSP1178   0.0000
    26 C6          36.3000    12.6240     0.4780 C.2          1 GSP1178   0.0000
    27 O6          36.1300    11.4940     0.0040 O.2          1 GSP1178   0.0000
    28 N1          37.2360    13.4810    -0.0720 N.pl3        1 GSP1178   0.0000
    29 C2          37.4340    14.7440     0.4500 C.2          1 GSP1178   0.0000
    30 N2          38.3420    15.5600    -0.0890 N.pl3        1 GSP1178   0.0000
    31 N3          36.6780    15.1490     1.5340 N.2          1 GSP1178   0.0000
    32 C4          35.7500    14.3120     2.0820 C.2          1 GSP1178   0.0000
    33 H5'1        33.8671    14.6018     7.6166 H            1 GSP1178   0.0000
    34 H5'2        32.5255    15.5325     7.5894 H            1 GSP1178   0.0000
    35 H4'         34.3246    16.7601     6.6462 H            1 GSP1178   0.0000
    36 H3'         31.9795    16.3824     5.3300 H            1 GSP1178   0.0000
    37 H5          33.2928    18.3846     4.2297 H            1 GSP1178   0.0000
    38 H2'         32.7341    15.4509     3.4404 H            1 GSP1178   0.0000
    39 H7          34.0167    17.1281     2.1601 H            1 GSP1178   0.0000
    40 H1'         35.4158    16.3562     3.6761 H            1 GSP1178   0.0000
    41 H9          33.4455    13.1192     3.9341 H            1 GSP1178   0.0000
    42 H10         37.7766    13.1819    -0.8583 H            1 GSP1178   0.0000
    43 H11         38.4820    16.4738     0.2923 H            1 GSP1178   0.0000
    44 H12         38.8824    15.2577    -0.8742 H            1 GSP1178   0.0000
    45 H13         34.2098    11.5077     2.1419 H            1 GSP1178   0.0000
@<TRIPOS>BOND
     1    1    2       1
     2    1    3       2
     3    1    4      ar
     4    1    5      ar
     5    2    6       1
     6    6    7      ar
     7    6    8      ar
     8    6   12       1
     9    9   10      ar
    10    9   11      ar
    11    9   12       1
    12    9   13       1
    13   13   14       1
    14   14   15       1
    15   15   16       1
    16   15   17       1
    17   16   21       1
    18   17   18       1
    19   17   19       1
    20   19   20       1
    21   19   21       1
    22   21   22       1
    23   22   23       1
    24   22   32       1
    25   23   24       2
    26   24   25       1
    27   25   26       1
    28   25   32       2
    29   26   27       2
    30   26   28       1
    31   28   29       1
    32   29   30       1
    33   29   31       2
    34   31   32       1
    35   30   44       1
    36   30   43       1
    37   28   42       1
    38   23   41       1
    39   14   33       1
    40   14   34       1
    41   15   35       1
    42   17   36       1
    43   18   37       1
    44   19   38       1
    45   20   39       1
    46   21   40       1
    47   24   45       1
@<TRIPOS>SUBSTRUCTURE
     1 GSP1178     1 GROUP             4 A     GSP     0 **** GSP A1178
