@<TRIPOS>MOLECULE
2xda_JPS_1_ligand
   37    39     1     0     0
SMALL
NO_CHARGES


@<TRIPOS>ATOM
     1 CAA          1.0330    18.5770    26.5630 C.3          1 JPS1151   0.0000
     2 CAG          1.1820    17.4800    25.4960 C.3          1 JPS1151   0.0000
     3 CAH          2.3770    16.5370    25.7270 C.3          1 JPS1151   0.0000
     4 CAM          2.2390    15.3590    24.7630 C.2          1 JPS1151   0.0000
     5 CAI          2.0960    14.0500    25.0410 C.2          1 JPS1151   0.0000
     6 SAK          2.2610    15.5580    23.1290 S.3          1 JPS1151   0.0000
     7 CAO          2.0760    13.9370    22.7770 C.2          1 JPS1151   0.0000
     8 CAN          2.0010    13.2210    23.9740 C.2          1 JPS1151   0.0000
     9 CAR          1.8090    11.6790    23.9580 C.3          1 JPS1151   0.0000
    10 CAL          0.9480    11.2750    25.1550 C.2          1 JPS1151   0.0000
    11 OAC          1.5710    11.1780    26.2130 O.co2        1 JPS1151   0.0000
    12 OAB         -0.2760    11.0620    25.0200 O.co2        1 JPS1151  -1.0000
    13 OAF          3.0760    10.9940    24.1390 O.3          1 JPS1151   0.0000
    14 CAJ          1.2290    11.1970    22.6140 C.3          1 JPS1151   0.0000
    15 CAP          2.0610    11.8050    21.4570 C.3          1 JPS1151   0.0000
    16 OAD          1.5430    11.3300    20.2010 O.3          1 JPS1151   0.0000
    17 CAQ          1.9390    13.3210    21.4230 C.3          1 JPS1151   0.0000
    18 OAE          2.8510    13.9730    20.5060 O.3          1 JPS1151   0.0000
    19 CA0         -0.3070    19.3200    26.5630 C.3          1 JPS1151   0.0000
    20 CA1          0.9320    20.0080    26.0390 C.3          1 JPS1151   0.0000
    21 HAA          1.4861    18.4347    27.4430 H            1 JPS1151   0.0000
    22 HAG1         1.2974    17.9211    24.6060 H            1 JPS1151   0.0000
    23 HAG2         0.3457    16.9317    25.4903 H            1 JPS1151   0.0000
    24 HAH1         2.3713    16.2062    26.6707 H            1 JPS1151   0.0000
    25 HAH2         3.2327    17.0230    25.5493 H            1 JPS1151   0.0000
    26 HAI          2.0619    13.7092    25.9805 H            1 JPS1151   0.0000
    27 HAF          3.4752    11.2579    25.0171 H            1 JPS1151   0.0000
    28 HAJ1         0.2773    11.4935    22.5342 H            1 JPS1151   0.0000
    29 HAJ2         1.2720    10.1989    22.5692 H            1 JPS1151   0.0000
    30 HAP          3.0211    11.5418    21.5518 H            1 JPS1151   0.0000
    31 HAD          2.2593    10.8325    19.7117 H            1 JPS1151   0.0000
    32 HAQ          1.0139    13.5282    21.1048 H            1 JPS1151   0.0000
    33 HAE          3.1357    13.3235    19.8009 H            1 JPS1151   0.0000
    34 HA01        -0.7144    19.6151    27.4273 H            1 JPS1151   0.0000
    35 HA02        -1.0307    19.0446    25.9302 H            1 JPS1151   0.0000
    36 HA11         1.0258    20.1882    25.0599 H            1 JPS1151   0.0000
    37 HA12         1.3422    20.7587    26.5569 H            1 JPS1151   0.0000
@<TRIPOS>BOND
     1    1    2       1
     2    1   19       1
     3    1   20       1
     4    2    3       1
     5    3    4       1
     6    4    5       2
     7    4    6       1
     8    5    8       1
     9    6    7       1
    10    7    8       2
    11    7   17       1
    12    8    9       1
    13    9   10       1
    14    9   13       1
    15    9   14       1
    16   10   11      ar
    17   10   12      ar
    18   14   15       1
    19   15   16       1
    20   15   17       1
    21   17   18       1
    22   19   20       1
    23    1   21       1
    24    2   22       1
    25    2   23       1
    26    3   24       1
    27    3   25       1
    28    5   26       1
    29   20   37       1
    30   13   27       1
    31   14   28       1
    32   14   29       1
    33   15   30       1
    34   16   31       1
    35   17   32       1
    36   18   33       1
    37   19   34       1
    38   19   35       1
    39   20   36       1
@<TRIPOS>SUBSTRUCTURE
     1 JPS1151     1 GROUP             4 A     JPS     0 **** JPS A1151
