@<TRIPOS>MOLECULE
./coach420/1c5i/ligand.pdb
 18 19 0 0 0
SMALL
GASTEIGER

@<TRIPOS>ATOM
      1  C1B       35.4890   24.3460   37.8020 C.3   501  XYP501      0.2695
      2  C2B       35.4110   25.8200   37.3630 C.3   501  XYP501      0.2406
      3  C3B       36.3780   26.6540   38.2060 C.3   501  XYP501      0.2198
      4  C4B       36.0220   26.4760   39.6880 C.3   501  XYP501      0.2143
      5  C5B       36.0990   24.9800   40.0470 C.3   501  XYP501      0.1803
      6  O2B       35.7530   25.9290   35.9860 O.3   501  XYP501     -0.2149
      7  O3B       36.2700   28.0300   37.8440 O.3   501  XYP501     -0.2174
      8  O4B       36.9300   27.2150   40.4950 O.3   501  XYP501     -0.2176
      9  O5B       35.1830   24.2260   39.2070 O.3   501  XYP501     -0.3257
     10  C1        32.8200   21.5650   34.8600 C.3   502  DFX502      0.1801
     11  C2        32.9280   20.6390   36.0960 C.3   502  DFX502      0.2229
     12  C3        33.5250   21.4040   37.2900 C.3   502  DFX502      0.2163
     13  C4        34.7890   22.2010   36.8970 C.3   502  DFX502      0.1803
     14  C5        35.2360   21.9380   35.4350 C.3   502  DFX502      0.1744
     15  O3        33.8460   20.4940   38.3390 O.3   502  DFX502     -0.2174
     16  O4        34.5280   23.5850   37.0690 O.3   502  DFX502     -0.3257
     17  O5        34.1300   22.0500   34.4920 O.3   502  DFX502     -0.3481
     18  F2        31.6550   20.0980   36.4340 F     502  DFX502     -0.2317
@<TRIPOS>BOND
     1     1    16    1
     2     1     2    1
     3     1     9    1
     4     2     6    1
     5     2     3    1
     6     3     7    1
     7     3     4    1
     8     4     5    1
     9     4     8    1
    10     5     9    1
    11    10    17    1
    12    10    11    1
    13    11    18    1
    14    11    12    1
    15    12    13    1
    16    12    15    1
    17    13    14    1
    18    13    16    1
    19    14    17    1
