@<TRIPOS>MOLECULE
5ezm_PC_1_ligand
   24    23     1     0     0
SMALL
NO_CHARGES


@<TRIPOS>ATOM
     1 P1          32.0960    15.9500    49.9460 P.3          1 PC655    0.0000
     2 O1          32.8370    14.8130    49.2780 O.co2        1 PC655    0.0000
     3 O3          30.6120    15.7170    49.7900 O.co2        1 PC655   -1.0000
     4 O4          32.4600    17.2590    49.2810 O.co2        1 PC655   -1.0000
     5 O2          32.4820    16.0220    51.5540 O.3          1 PC655    0.0000
     6 C1          33.3260    17.0410    52.0210 C.3          1 PC655    0.0000
     7 C2          33.1260    17.2700    53.5310 C.3          1 PC655    0.0000
     8 N1          34.3010    16.8680    54.2930 N.4          1 PC655    1.0000
     9 C3          34.0300    17.0030    55.7110 C.3          1 PC655    0.0000
    10 C4          34.6290    15.4830    54.0150 C.3          1 PC655    0.0000
    11 C5          35.4250    17.7190    53.9480 C.3          1 PC655    0.0000
    12 H1          33.1192    17.8879    51.5310 H            1 PC655    0.0000
    13 H2          34.2770    16.7818    51.8521 H            1 PC655    0.0000
    14 H3          32.3399    16.7343    53.8395 H            1 PC655    0.0000
    15 H4          32.9512    18.2414    53.6919 H            1 PC655    0.0000
    16 H5          34.8373    16.7267    56.2324 H            1 PC655    0.0000
    17 H6          33.8089    17.9558    55.9189 H            1 PC655    0.0000
    18 H7          33.2569    16.4195    55.9596 H            1 PC655    0.0000
    19 H8          35.4361    15.2191    54.5431 H            1 PC655    0.0000
    20 H9          33.8579    14.9000    54.2709 H            1 PC655    0.0000
    21 H10         34.8192    15.3749    53.0392 H            1 PC655    0.0000
    22 H11         36.2285    17.4392    54.4734 H            1 PC655    0.0000
    23 H12         35.6196    17.6343    52.9708 H            1 PC655    0.0000
    24 H13         35.2013    18.6698    54.1621 H            1 PC655    0.0000
@<TRIPOS>BOND
     1    1    2      ar
     2    1    3      ar
     3    1    4      ar
     4    1    5       1
     5    5    6       1
     6    6    7       1
     7    7    8       1
     8    8    9       1
     9    8   10       1
    10    8   11       1
    11   11   24       1
    12   11   23       1
    13    6   12       1
    14    6   13       1
    15    7   14       1
    16    7   15       1
    17    9   16       1
    18    9   17       1
    19    9   18       1
    20   10   19       1
    21   10   20       1
    22   10   21       1
    23   11   22       1
@<TRIPOS>SUBSTRUCTURE
     1 PC655       1 GROUP             4 A      PC     0 ****  PC A 655
