@<TRIPOS>MOLECULE
1g28_FMN_2_ligand
   50    52     1     0     0
SMALL
NO_CHARGES


@<TRIPOS>ATOM
     1 N1          28.1320     9.3190    19.8710 N.2          1 FMN2033   0.0000
     2 C2          29.3950     8.9090    19.5250 C.2          1 FMN2033   0.0000
     3 O2          29.6770     8.4310    18.4600 O.2          1 FMN2033   0.0000
     4 N3          30.4580     9.0530    20.4770 N.pl3        1 FMN2033   0.0000
     5 C4          30.3270     9.5720    21.7240 C.2          1 FMN2033   0.0000
     6 O4          31.3100     9.6540    22.4830 O.2          1 FMN2033   0.0000
     7 C4A         28.9810    10.0140    22.0970 C.2          1 FMN2033   0.0000
     8 N5          28.7540    10.5350    23.3000 N.2          1 FMN2033   0.0000
     9 C5A         27.4890    10.9310    23.6310 C.ar         1 FMN2033   0.0000
    10 C6          27.2310    11.4890    24.9480 C.ar         1 FMN2033   0.0000
    11 C7          26.0010    11.8940    25.3630 C.ar         1 FMN2033   0.0000
    12 C7M         25.7500    12.4760    26.7590 C.3          1 FMN2033   0.0000
    13 C8          24.8520    11.7730    24.4430 C.ar         1 FMN2033   0.0000
    14 C8M         23.4670    12.2040    24.8470 C.3          1 FMN2033   0.0000
    15 C9          25.0790    11.2460    23.1810 C.ar         1 FMN2033   0.0000
    16 C9A         26.3450    10.8180    22.7310 C.ar         1 FMN2033   0.0000
    17 N10         26.6200    10.2610    21.4370 N.pl3        1 FMN2033   0.0000
    18 C10         27.9010     9.8430    21.0730 C.2          1 FMN2033   0.0000
    19 C1'         25.5120    10.0960    20.4500 C.3          1 FMN2033   0.0000
    20 C2'         25.3660    11.2460    19.4530 C.3          1 FMN2033   0.0000
    21 O2'         25.4330    12.5330    20.0520 O.3          1 FMN2033   0.0000
    22 C3'         24.0110    11.1490    18.7140 C.3          1 FMN2033   0.0000
    23 O3'         22.9460    10.9410    19.6920 O.3          1 FMN2033   0.0000
    24 C4'         23.9640    10.0320    17.6940 C.3          1 FMN2033   0.0000
    25 O4'         24.9660    10.2660    16.6820 O.3          1 FMN2033   0.0000
    26 C5'         22.6350     9.8560    16.9740 C.3          1 FMN2033   0.0000
    27 O5'         21.9900    11.1290    16.7790 O.3          1 FMN2033   0.0000
    28 P           22.0610    11.9590    15.4230 P.3          1 FMN2033   0.0000
    29 O1P         23.5100    12.1260    15.0300 O.co2        1 FMN2033   0.0000
    30 O2P         21.3290    13.2630    15.6300 O.co2        1 FMN2033  -1.0000
    31 O3P         21.3470    11.0160    14.3880 O.co2        1 FMN2033  -1.0000
    32 H1          31.3685     8.7464    20.1997 H            1 FMN2033   0.0000
    33 H2          27.9986    11.5799    25.5825 H            1 FMN2033   0.0000
    34 H7M1        24.7817    12.7069    26.8547 H            1 FMN2033   0.0000
    35 H7M2        26.0017    11.8004    27.4520 H            1 FMN2033   0.0000
    36 H7M3        26.3029    13.3003    26.8808 H            1 FMN2033   0.0000
    37 H8M1        22.8335    12.0422    24.0903 H            1 FMN2033   0.0000
    38 H8M2        23.1738    11.6781    25.6454 H            1 FMN2033   0.0000
    39 H8M3        23.4738    13.1780    25.0736 H            1 FMN2033   0.0000
    40 H9          24.3027    11.1650    22.5558 H            1 FMN2033   0.0000
    41 H1'1        24.6538    10.0124    20.9565 H            1 FMN2033   0.0000
    42 H1'2        25.6776     9.2557    19.9338 H            1 FMN2033   0.0000
    43 H2'         26.0999    11.1735    18.7776 H            1 FMN2033   0.0000
    44 H13         25.3309    13.2346    19.3468 H            1 FMN2033   0.0000
    45 H3'         23.8441    12.0153    18.2432 H            1 FMN2033   0.0000
    46 H15         22.0671    10.8775    19.2193 H            1 FMN2033   0.0000
    47 H4'         24.1836     9.1744    18.1591 H            1 FMN2033   0.0000
    48 H17         24.5711    10.8094    15.9412 H            1 FMN2033   0.0000
    49 H5'1        22.0404     9.2670    17.5214 H            1 FMN2033   0.0000
    50 H5'2        22.7976     9.4305    16.0838 H            1 FMN2033   0.0000
@<TRIPOS>BOND
     1    1    2       1
     2    1   18       2
     3    2    3       2
     4    2    4       1
     5    4    5       1
     6    5    6       2
     7    5    7       1
     8    7    8       2
     9    7   18       1
    10    8    9       1
    11    9   10      ar
    12    9   16      ar
    13   10   11      ar
    14   11   12       1
    15   11   13      ar
    16   13   14       1
    17   13   15      ar
    18   15   16      ar
    19   16   17       1
    20   17   18       1
    21   17   19       1
    22   19   20       1
    23   20   21       1
    24   20   22       1
    25   22   23       1
    26   22   24       1
    27   24   25       1
    28   24   26       1
    29   26   27       1
    30   27   28       1
    31   28   29      ar
    32   28   30      ar
    33   28   31      ar
    34    4   32       1
    35   10   33       1
    36   12   34       1
    37   12   35       1
    38   12   36       1
    39   14   37       1
    40   14   38       1
    41   14   39       1
    42   15   40       1
    43   19   41       1
    44   19   42       1
    45   20   43       1
    46   21   44       1
    47   22   45       1
    48   23   46       1
    49   24   47       1
    50   25   48       1
    51   26   49       1
    52   26   50       1
@<TRIPOS>SUBSTRUCTURE
     1 FMN2033     1 GROUP             4 B     FMN     0 **** FMN B2033
