@<TRIPOS>MOLECULE
4nbt_NAD_1_ligand
   70    74     1     0     0
SMALL
NO_CHARGES


@<TRIPOS>ATOM
     1 PA         -20.5810   -53.8290    31.0610 P.3          1 NAD301   0.0000
     2 O1A        -20.1400   -54.1230    29.6480 O.co2        1 NAD301   0.0000
     3 O2A        -21.9920   -54.2800    31.4850 O.co2        1 NAD301  -1.0000
     4 O5B        -20.4950   -52.2750    31.3270 O.3          1 NAD301   0.0000
     5 C5B        -19.3580   -51.5600    30.9320 C.3          1 NAD301   0.0000
     6 C4B        -19.6860   -50.1350    30.7480 C.3          1 NAD301   0.0000
     7 O4B        -18.3980   -49.5050    30.4620 O.3          1 NAD301   0.0000
     8 C3B        -20.5780   -49.8730    29.6240 C.3          1 NAD301   0.0000
     9 O3B        -21.6370   -49.0190    30.0500 O.3          1 NAD301   0.0000
    10 C2B        -19.7240   -49.2680    28.6270 C.3          1 NAD301   0.0000
    11 O2B        -20.4430   -48.3930    27.7180 O.3          1 NAD301   0.0000
    12 C1B        -18.6740   -48.5850    29.3820 C.3          1 NAD301   0.0000
    13 N9A        -17.5550   -48.3090    28.5360 N.pl3        1 NAD301   0.0000
    14 C8A        -16.9390   -49.1370    27.6420 C.2          1 NAD301   0.0000
    15 N7A        -15.9710   -48.4840    26.9880 N.2          1 NAD301   0.0000
    16 C5A        -15.9460   -47.1830    27.4200 C.ar         1 NAD301   0.0000
    17 C6A        -15.2100   -46.0400    27.1420 C.ar         1 NAD301   0.0000
    18 N6A        -14.2040   -46.0180    26.1430 N.pl3        1 NAD301   0.0000
    19 N1A        -15.4840   -44.8920    27.8110 N.ar         1 NAD301   0.0000
    20 C2A        -16.4450   -44.8290    28.7450 C.ar         1 NAD301   0.0000
    21 N3A        -17.1910   -45.9060    29.0460 N.ar         1 NAD301   0.0000
    22 C4A        -16.9510   -47.0800    28.4200 C.ar         1 NAD301   0.0000
    23 O3         -19.5080   -54.5590    31.9550 O.3          1 NAD301   0.0000
    24 PN         -19.3980   -54.7490    33.5440 P.3          1 NAD301   0.0000
    25 O1N        -19.5490   -56.2730    33.7850 O.co2        1 NAD301   0.0000
    26 O2N        -20.3070   -53.8790    34.3590 O.co2        1 NAD301  -1.0000
    27 O5D        -17.8680   -54.3210    33.7950 O.3          1 NAD301   0.0000
    28 C5D        -17.4790   -53.2300    34.6600 C.3          1 NAD301   0.0000
    29 C4D        -16.0370   -53.3900    34.9330 C.3          1 NAD301   0.0000
    30 O4D        -15.9300   -54.6080    35.7660 O.3          1 NAD301   0.0000
    31 C3D        -15.1590   -53.6350    33.7760 C.3          1 NAD301   0.0000
    32 O3D        -13.8780   -53.0300    33.9970 O.3          1 NAD301   0.0000
    33 C2D        -14.9710   -55.0650    33.7230 C.3          1 NAD301   0.0000
    34 O2D        -13.7800   -55.4190    33.0200 O.3          1 NAD301   0.0000
    35 C1D        -14.8900   -55.4110    35.1190 C.3          1 NAD301   0.0000
    36 N1N        -15.1540   -56.7400    35.4930 N.ar         1 NAD301   1.0000
    37 C2N        -16.3900   -57.3330    35.2980 C.ar         1 NAD301   0.0000
    38 C3N        -16.5870   -58.6400    35.7220 C.ar         1 NAD301   0.0000
    39 C7N        -17.9100   -59.3310    35.5250 C.2          1 NAD301   0.0000
    40 O7N        -18.0100   -60.5800    35.7060 O.2          1 NAD301   0.0000
    41 N7N        -19.1160   -58.5370    35.1890 N.am         1 NAD301   0.0000
    42 C4N        -15.5830   -59.3200    36.3620 C.ar         1 NAD301   0.0000
    43 C5N        -14.3740   -58.7000    36.5910 C.ar         1 NAD301   0.0000
    44 C6N        -14.1660   -57.4110    36.1730 C.ar         1 NAD301   0.0000
    45 H5B1       -19.0168   -51.9337    30.0695 H            1 NAD301   0.0000
    46 H5B2       -18.6527   -51.6477    31.6354 H            1 NAD301   0.0000
    47 H4B        -20.0736   -49.7594    31.5899 H            1 NAD301   0.0000
    48 H3B        -20.9517   -50.7332    29.2770 H            1 NAD301   0.0000
    49 H5         -21.2562   -48.1562    30.3826 H            1 NAD301   0.0000
    50 H2B        -19.3008   -49.9984    28.0909 H            1 NAD301   0.0000
    51 H7         -20.4507   -47.4634    28.0864 H            1 NAD301   0.0000
    52 H1B        -19.0319   -47.7287    29.7544 H            1 NAD301   0.0000
    53 H8A        -17.1777   -50.0971    27.4963 H            1 NAD301   0.0000
    54 H6A1       -13.6917   -45.1773    25.9677 H            1 NAD301   0.0000
    55 H6A2       -14.0068   -46.8432    25.6138 H            1 NAD301   0.0000
    56 H2A        -16.6090   -43.9671    29.2249 H            1 NAD301   0.0000
    57 H5D1       -17.9968   -53.2678    35.5147 H            1 NAD301   0.0000
    58 H5D2       -17.6478   -52.3549    34.2064 H            1 NAD301   0.0000
    59 H4D        -15.7026   -52.6004    35.4475 H            1 NAD301   0.0000
    60 H3D        -15.5749   -53.2963    32.9320 H            1 NAD301   0.0000
    61 H17        -13.6797   -53.0178    34.9771 H            1 NAD301   0.0000
    62 H2D        -15.7652   -55.5038    33.3026 H            1 NAD301   0.0000
    63 H19        -13.3186   -54.5889    32.7068 H            1 NAD301   0.0000
    64 H1D        -13.9954   -55.1400    35.4744 H            1 NAD301   0.0000
    65 H2N        -17.1311   -56.8263    34.8575 H            1 NAD301   0.0000
    66 H7N1       -19.9954   -58.9947    35.0579 H            1 NAD301   0.0000
    67 H7N2       -19.0501   -57.5438    35.0935 H            1 NAD301   0.0000
    68 H4N        -15.7278   -60.2630    36.6616 H            1 NAD301   0.0000
    69 H5N        -13.6442   -59.1930    37.0647 H            1 NAD301   0.0000
    70 H6N        -13.2947   -56.9586    36.3630 H            1 NAD301   0.0000
@<TRIPOS>BOND
     1    1    2      ar
     2    1    3      ar
     3    1    4       1
     4    1   23       1
     5    4    5       1
     6    5    6       1
     7    6    7       1
     8    6    8       1
     9    7   12       1
    10    8    9       1
    11    8   10       1
    12   10   11       1
    13   10   12       1
    14   12   13       1
    15   13   14       1
    16   13   22       1
    17   14   15       2
    18   15   16       1
    19   16   17      ar
    20   16   22      ar
    21   17   18       1
    22   17   19      ar
    23   19   20      ar
    24   20   21      ar
    25   21   22      ar
    26   23   24       1
    27   24   25      ar
    28   24   26      ar
    29   24   27       1
    30   27   28       1
    31   28   29       1
    32   29   30       1
    33   29   31       1
    34   30   35       1
    35   31   32       1
    36   31   33       1
    37   33   34       1
    38   33   35       1
    39   35   36       1
    40   36   37      ar
    41   36   44      ar
    42   37   38      ar
    43   38   39       1
    44   38   42      ar
    45   39   40       2
    46   39   41      am
    47   42   43      ar
    48   43   44      ar
    49   44   70       1
    50    5   45       1
    51    5   46       1
    52    6   47       1
    53    8   48       1
    54    9   49       1
    55   10   50       1
    56   11   51       1
    57   12   52       1
    58   14   53       1
    59   18   54       1
    60   18   55       1
    61   20   56       1
    62   43   69       1
    63   28   57       1
    64   28   58       1
    65   29   59       1
    66   31   60       1
    67   32   61       1
    68   33   62       1
    69   34   63       1
    70   35   64       1
    71   37   65       1
    72   41   66       1
    73   41   67       1
    74   42   68       1
@<TRIPOS>SUBSTRUCTURE
     1 NAD301      1 GROUP             4 A     NAD     0 **** NAD A 301
