@<TRIPOS>MOLECULE
3glu_LYS_VAL_MET_1_ligand
   58    57     3     0     0
SMALL
NO_CHARGES


@<TRIPOS>ATOM
     1 N          -30.7420   -25.8700   -21.2630 N.4          1 LYS642   1.0000
     2 CA         -29.4450   -26.4130   -20.7880 C.3          1 LYS642   0.0000
     3 C          -28.9130   -27.3680   -21.8220 C.2          1 LYS642   0.0000
     4 O          -29.4560   -28.4530   -21.9920 O.2          1 LYS642   0.0000
     5 CB         -29.5870   -27.1390   -19.4580 C.3          1 LYS642   0.0000
     6 CG         -28.2680   -27.6330   -18.8970 C.3          1 LYS642   0.0000
     7 CD         -28.5060   -28.5540   -17.7150 C.3          1 LYS642   0.0000
     8 CE         -27.2300   -29.2750   -17.3000 C.3          1 LYS642   0.0000
     9 NZ         -27.3450   -29.9200   -15.9550 N.4          1 LYS642   1.0000
    10 H1         -30.6735   -24.8767   -21.3562 H            1 LYS642   0.0000
    11 H2         -30.9674   -26.2732   -22.1499 H            1 LYS642   0.0000
    12 HA         -28.7975   -25.6588   -20.6788 H            1 LYS642   0.0000
    13 HB1        -30.1900   -27.9258   -19.5893 H            1 LYS642   0.0000
    14 HB2        -29.9974   -26.5112   -18.7966 H            1 LYS642   0.0000
    15 HG1        -27.7227   -26.8494   -18.5993 H            1 LYS642   0.0000
    16 HG2        -27.7737   -28.1319   -19.6088 H            1 LYS642   0.0000
    17 HD1        -29.1954   -29.2333   -17.9666 H            1 LYS642   0.0000
    18 HD2        -28.8382   -28.0120   -16.9431 H            1 LYS642   0.0000
    19 HE1        -26.4815   -28.6123   -17.2744 H            1 LYS642   0.0000
    20 HE2        -27.0266   -29.9816   -17.9777 H            1 LYS642   0.0000
    21 HZ1        -27.2002   -30.9054   -16.0444 H            1 LYS642   0.0000
    22 HZ2        -26.6552   -29.5361   -15.3411 H            1 LYS642   0.0000
    23 HZ3        -28.2564   -29.7496   -15.5804 H            1 LYS642   0.0000
    24 N          -27.8410   -26.9460   -22.4980 N.am         2 VAL643   0.0000
    25 CA         -27.2640   -27.6420   -23.6670 C.3          2 VAL643   0.0000
    26 C          -25.7280   -27.7080   -23.5730 C.2          2 VAL643   0.0000
    27 O          -25.0750   -26.6730   -23.4820 O.2          2 VAL643   0.0000
    28 CB         -27.7330   -26.9780   -25.0390 C.3          2 VAL643   0.0000
    29 CG1        -28.8860   -27.7950   -25.7150 C.3          2 VAL643   0.0000
    30 CG2        -28.1300   -25.5010   -24.8470 C.3          2 VAL643   0.0000
    31 H15        -27.3992   -26.1025   -22.1925 H            2 VAL643   0.0000
    32 H16        -27.6061   -28.5816   -23.6559 H            2 VAL643   0.0000
    33 HB         -26.9505   -26.9971   -25.6614 H            2 VAL643   0.0000
    34 HG11       -29.1530   -27.3500   -26.5698 H            2 VAL643   0.0000
    35 HG12       -28.5681   -28.7234   -25.9076 H            2 VAL643   0.0000
    36 HG13       -29.6729   -27.8332   -25.0991 H            2 VAL643   0.0000
    37 HG21       -28.4180   -25.1165   -25.7241 H            2 VAL643   0.0000
    38 HG22       -28.8840   -25.4408   -24.1929 H            2 VAL643   0.0000
    39 HG23       -27.3455   -24.9874   -24.4994 H            2 VAL643   0.0000
    40 N          -25.1670   -28.9230   -23.5730 N.am         3 MET644   0.0000
    41 CA         -23.7060   -29.1600   -23.4180 C.3          3 MET644   0.0000
    42 C          -22.9430   -29.0450   -24.7220 C.2          3 MET644   0.0000
    43 O          -22.4660   -27.9670   -25.0420 O.2          3 MET644   0.0000
    44 CB         -23.4200   -30.5290   -22.7820 C.3          3 MET644   0.0000
    45 CG         -22.1120   -31.1970   -23.2660 C.3          3 MET644   0.0000
    46 SD         -20.7630   -31.4500   -22.0260 S.3          3 MET644   0.0000
    47 CE         -19.7120   -32.7030   -22.8280 C.3          3 MET644   0.0000
    48 H24        -25.7640   -29.7176   -23.6835 H            3 MET644   0.0000
    49 H25        -23.3512   -28.4598   -22.7984 H            3 MET644   0.0000
    50 H26        -22.8312   -29.8430   -25.3142 H            3 MET644   0.0000
    51 H27        -24.1818   -31.1397   -22.9983 H            3 MET644   0.0000
    52 H28        -23.3611   -30.4075   -21.7912 H            3 MET644   0.0000
    53 H29        -21.7401   -30.6280   -23.9994 H            3 MET644   0.0000
    54 H30        -22.3537   -32.0959   -23.6315 H            3 MET644   0.0000
    55 H31        -18.9374   -32.9184   -22.2334 H            3 MET644   0.0000
    56 H32        -20.2472   -33.5317   -22.9916 H            3 MET644   0.0000
    57 HE3        -19.3744   -32.3468   -23.6993 H            3 MET644   0.0000
    58 H34        -31.4590   -26.0942   -20.6030 H            3 MET644   0.0000
@<TRIPOS>BOND
     1    1    2       1
     2    2    5       1
     3    2    3       1
     4    5    6       1
     5    6    7       1
     6    7    8       1
     7    8    9       1
     8    3    4       2
     9    1   10       1
    10    1   11       1
    11    2   12       1
    12    3   24      am
    13    5   13       1
    14    5   14       1
    15    6   15       1
    16    6   16       1
    17    7   17       1
    18    7   18       1
    19    8   19       1
    20    8   20       1
    21    9   21       1
    22    9   22       1
    23    9   23       1
    24   24   25       1
    25   25   28       1
    26   25   26       1
    27   28   29       1
    28   28   30       1
    29   26   27       2
    30   30   39       1
    31   24   31       1
    32   25   32       1
    33   26   40      am
    34   28   33       1
    35   29   34       1
    36   29   35       1
    37   29   36       1
    38   30   37       1
    39   30   38       1
    40   40   41       1
    41   41   44       1
    42   41   42       1
    43   44   45       1
    44   45   46       1
    45   46   47       1
    46   42   43       2
    47   47   57       1
    48   40   48       1
    49   41   49       1
    50   42   50       1
    51   44   51       1
    52   44   52       1
    53   45   53       1
    54   45   54       1
    55   47   55       1
    56   47   56       1
    57    1   58       1
@<TRIPOS>SUBSTRUCTURE
     1 LYS642      1 RESIDUE           4 B     LYS     0 **** LYS B 642
     2 VAL643     24 RESIDUE           4 B     VAL     0 **** VAL B 643
     3 MET644     40 RESIDUE           4 B     MET     0 **** MET B 644
