@<TRIPOS>MOLECULE
5dkk_FMN_2_ligand
   50    52     1     0     0
SMALL
NO_CHARGES


@<TRIPOS>ATOM
     1 N1         -14.4320    49.0370   -14.7110 N.2          1 FMN500   0.0000
     2 C2         -14.6600    49.4420   -13.4020 C.2          1 FMN500   0.0000
     3 O2         -14.0410    50.3650   -12.8810 O.2          1 FMN500   0.0000
     4 N3         -15.6350    48.8410   -12.6630 N.pl3        1 FMN500   0.0000
     5 C4         -16.4250    47.8660   -13.2160 C.2          1 FMN500   0.0000
     6 O4         -17.2530    47.3210   -12.4810 O.2          1 FMN500   0.0000
     7 C4A        -16.2300    47.4650   -14.5390 C.2          1 FMN500   0.0000
     8 N5         -16.8620    46.3280   -15.0240 N.2          1 FMN500   0.0000
     9 C5A        -16.2680    45.6550   -16.0730 C.ar         1 FMN500   0.0000
    10 C6         -16.6140    44.3490   -16.3810 C.ar         1 FMN500   0.0000
    11 C7         -15.9760    43.6950   -17.4280 C.ar         1 FMN500   0.0000
    12 C7M        -16.3400    42.2970   -17.8210 C.3          1 FMN500   0.0000
    13 C8         -14.9200    44.2860   -18.0790 C.ar         1 FMN500   0.0000
    14 C8M        -14.3210    43.6560   -19.2920 C.3          1 FMN500   0.0000
    15 C9         -14.5110    45.5360   -17.7020 C.ar         1 FMN500   0.0000
    16 C9A        -15.2680    46.2740   -16.8120 C.ar         1 FMN500   0.0000
    17 N10        -14.9590    47.5970   -16.5840 N.pl3        1 FMN500   0.0000
    18 C10        -15.1940    48.0400   -15.2850 C.2          1 FMN500   0.0000
    19 C1'        -13.9310    48.2450   -17.4850 C.3          1 FMN500   0.0000
    20 C2'        -14.3570    48.5060   -18.9510 C.3          1 FMN500   0.0000
    21 O2'        -15.2540    47.5650   -19.4780 O.3          1 FMN500   0.0000
    22 C3'        -13.2370    48.3510   -19.9580 C.3          1 FMN500   0.0000
    23 O3'        -13.1450    47.0150   -20.4040 O.3          1 FMN500   0.0000
    24 C4'        -11.9490    48.8520   -19.3680 C.3          1 FMN500   0.0000
    25 O4'        -12.2010    50.2130   -19.0710 O.3          1 FMN500   0.0000
    26 C5'        -10.7790    48.7020   -20.3370 C.3          1 FMN500   0.0000
    27 O5'         -9.6430    49.3900   -19.8570 O.3          1 FMN500   0.0000
    28 P           -9.5600    49.9620   -18.3570 P.3          1 FMN500   0.0000
    29 O1P         -9.7110    48.8350   -17.3710 O.co2        1 FMN500   0.0000
    30 O2P        -10.6120    51.0210   -18.0650 O.co2        1 FMN500  -1.0000
    31 O3P         -8.2150    50.6180   -18.1850 O.co2        1 FMN500  -1.0000
    32 H1         -15.7752    49.1130   -11.7110 H            1 FMN500   0.0000
    33 H2         -17.3203    43.8789   -15.8517 H            1 FMN500   0.0000
    34 H7M1       -15.7706    42.0081   -18.5906 H            1 FMN500   0.0000
    35 H7M2       -16.1896    41.6830   -17.0461 H            1 FMN500   0.0000
    36 H7M3       -17.3030    42.2660   -18.0888 H            1 FMN500   0.0000
    37 H8M1       -13.5693    44.2246   -19.6262 H            1 FMN500   0.0000
    38 H8M2       -13.9738    42.7477   -19.0589 H            1 FMN500   0.0000
    39 H8M3       -15.0186    43.5736   -20.0038 H            1 FMN500   0.0000
    40 H9         -13.6629    45.9162   -18.0711 H            1 FMN500   0.0000
    41 H1'1       -13.1272    47.6504   -17.5043 H            1 FMN500   0.0000
    42 H1'2       -13.6848    49.1254   -17.0797 H            1 FMN500   0.0000
    43 H2'        -14.7505    49.4222   -19.0269 H            1 FMN500   0.0000
    44 H13        -15.0980    46.6771   -19.0453 H            1 FMN500   0.0000
    45 H3'        -13.4547    48.9234   -20.7486 H            1 FMN500   0.0000
    46 H15        -12.4005    46.9354   -21.0669 H            1 FMN500   0.0000
    47 H4'        -11.7510    48.3551   -18.5231 H            1 FMN500   0.0000
    48 H17        -11.3823    50.6238   -18.6699 H            1 FMN500   0.0000
    49 H5'1       -11.0390    49.0778   -21.2265 H            1 FMN500   0.0000
    50 H5'2       -10.5576    47.7319   -20.4368 H            1 FMN500   0.0000
@<TRIPOS>BOND
     1    1    2       1
     2    1   18       2
     3    2    3       2
     4    2    4       1
     5    4    5       1
     6    5    6       2
     7    5    7       1
     8    7    8       2
     9    7   18       1
    10    8    9       1
    11    9   10      ar
    12    9   16      ar
    13   10   11      ar
    14   11   12       1
    15   11   13      ar
    16   13   14       1
    17   13   15      ar
    18   15   16      ar
    19   16   17       1
    20   17   18       1
    21   17   19       1
    22   19   20       1
    23   20   21       1
    24   20   22       1
    25   22   23       1
    26   22   24       1
    27   24   25       1
    28   24   26       1
    29   26   27       1
    30   27   28       1
    31   28   29      ar
    32   28   30      ar
    33   28   31      ar
    34    4   32       1
    35   10   33       1
    36   12   34       1
    37   12   35       1
    38   12   36       1
    39   14   37       1
    40   14   38       1
    41   14   39       1
    42   15   40       1
    43   19   41       1
    44   19   42       1
    45   20   43       1
    46   21   44       1
    47   22   45       1
    48   23   46       1
    49   24   47       1
    50   25   48       1
    51   26   49       1
    52   26   50       1
@<TRIPOS>SUBSTRUCTURE
     1 FMN500      1 GROUP             4 B     FMN     0 **** FMN B 500
