@<TRIPOS>MOLECULE
4rnh_C2E_1_ligand
   70    76     1     0     0
SMALL
NO_CHARGES


@<TRIPOS>ATOM
     1 P1          18.0560   -19.4860   -18.2530 P.3          1 C2E1503   0.0000
     2 O2P         17.9610   -19.1830   -16.7590 O.2          1 C2E1503   0.0000
     3 O1P         18.6740   -18.4700   -19.2380 O.3          1 C2E1503   0.0000
     4 O5'         18.8100   -20.9120   -18.4040 O.3          1 C2E1503   0.0000
     5 C5'         19.7830   -21.2210   -19.4140 C.3          1 C2E1503   0.0000
     6 C4'         19.1170   -22.1130   -20.4700 C.3          1 C2E1503   0.0000
     7 O4'         19.9570   -22.3310   -21.6180 O.3          1 C2E1503   0.0000
     8 C3'         18.8230   -23.5170   -19.9690 C.3          1 C2E1503   0.0000
     9 O3'         17.6800   -24.0110   -20.6580 O.3          1 C2E1503   0.0000
    10 C2'         20.0060   -24.3800   -20.3740 C.3          1 C2E1503   0.0000
    11 O2'         19.7020   -25.7780   -20.5280 O.3          1 C2E1503   0.0000
    12 C1'         20.3300   -23.7330   -21.7260 C.3          1 C2E1503   0.0000
    13 N9          21.7650   -23.8140   -22.0640 N.pl3        1 C2E1503   0.0000
    14 C8          22.7710   -23.9640   -21.2010 C.2          1 C2E1503   0.0000
    15 N7          23.9570   -23.9530   -21.8520 N.2          1 C2E1503   0.0000
    16 C5          23.7150   -23.7770   -23.1630 C.2          1 C2E1503   0.0000
    17 C6          24.5170   -23.6730   -24.3990 C.2          1 C2E1503   0.0000
    18 O6          25.7700   -23.7470   -24.3940 O.2          1 C2E1503   0.0000
    19 N1          23.8560   -23.4980   -25.5300 N.pl3        1 C2E1503   0.0000
    20 C2          22.5160   -23.3990   -25.5750 C.2          1 C2E1503   0.0000
    21 N2          21.8970   -23.2060   -26.7560 N.pl3        1 C2E1503   0.0000
    22 N3          21.7230   -23.4790   -24.4920 N.2          1 C2E1503   0.0000
    23 C4          22.2600   -23.6810   -23.2860 C.2          1 C2E1503   0.0000
    24 P11         16.5170   -24.7570   -19.8080 P.3          1 C2E1503   0.0000
    25 O21         15.4520   -25.3440   -20.7120 O.2          1 C2E1503   0.0000
    26 O11         17.1670   -25.5940   -18.7410 O.3          1 C2E1503   0.0000
    27 O5A         15.8060   -23.4960   -19.1120 O.3          1 C2E1503   0.0000
    28 C5A         15.2300   -22.4880   -19.9680 C.3          1 C2E1503   0.0000
    29 C4A         14.7090   -21.3450   -19.0950 C.3          1 C2E1503   0.0000
    30 O4A         13.6690   -21.8460   -18.2360 O.3          1 C2E1503   0.0000
    31 C3A         15.7570   -20.7390   -18.1550 C.3          1 C2E1503   0.0000
    32 O3A         16.5470   -19.7420   -18.7740 O.3          1 C2E1503   0.0000
    33 C2A         14.9140   -20.1800   -17.0380 C.3          1 C2E1503   0.0000
    34 O2A         14.5520   -18.8480   -17.3750 O.3          1 C2E1503   0.0000
    35 C1A         13.7230   -21.1400   -16.9890 C.3          1 C2E1503   0.0000
    36 N91         13.9840   -22.0550   -15.8560 N.pl3        1 C2E1503   0.0000
    37 C81         14.7660   -23.1580   -15.8200 C.2          1 C2E1503   0.0000
    38 N71         14.7470   -23.6870   -14.5660 N.2          1 C2E1503   0.0000
    39 C51         13.9810   -22.9030   -13.8150 C.2          1 C2E1503   0.0000
    40 C61         13.5520   -22.8770   -12.4230 C.2          1 C2E1503   0.0000
    41 O61         13.9290   -23.7450   -11.6170 O.2          1 C2E1503   0.0000
    42 N11         12.7550   -21.9190   -12.0020 N.2          1 C2E1503   0.0000
    43 C21         12.3220   -20.9410   -12.7930 C.2          1 C2E1503   0.0000
    44 N21         11.5100   -20.0190   -12.1810 N.pl3        1 C2E1503   0.0000
    45 N31         12.6520   -20.8760   -14.1310 N.pl3        1 C2E1503   0.0000
    46 C41         13.4680   -21.8270   -14.6560 C.2          1 C2E1503   0.0000
    47 H5'1        20.5557   -21.7042   -19.0022 H            1 C2E1503   0.0000
    48 H5'2        20.1070   -20.3766   -19.8406 H            1 C2E1503   0.0000
    49 H4'         18.2626   -21.6862   -20.7665 H            1 C2E1503   0.0000
    50 H3'         18.6851   -23.5292   -18.9786 H            1 C2E1503   0.0000
    51 H2'         20.7653   -24.2552   -19.7353 H            1 C2E1503   0.0000
    52 H6          20.5123   -26.3215   -20.3087 H            1 C2E1503   0.0000
    53 H1'         19.7901   -24.1699   -22.4455 H            1 C2E1503   0.0000
    54 H8          22.6637   -24.0697   -20.2124 H            1 C2E1503   0.0000
    55 H9          24.3720   -23.4369   -26.3844 H            1 C2E1503   0.0000
    56 H10         20.9004   -23.1321   -26.7920 H            1 C2E1503   0.0000
    57 H11         22.4342   -23.1367   -27.5966 H            1 C2E1503   0.0000
    58 H5A1        14.4752   -22.8825   -20.4921 H            1 C2E1503   0.0000
    59 H5A2        15.9267   -22.1414   -20.5961 H            1 C2E1503   0.0000
    60 H4A         14.3356   -20.6257   -19.6809 H            1 C2E1503   0.0000
    61 H3A         16.3480   -21.4631   -17.7996 H            1 C2E1503   0.0000
    62 H2A         15.4172   -20.1997   -16.1741 H            1 C2E1503   0.0000
    63 H17         13.9910   -18.4599   -16.6438 H            1 C2E1503   0.0000
    64 H1A         12.8739   -20.6336   -16.8388 H            1 C2E1503   0.0000
    65 H19         15.2788   -23.5277   -16.5948 H            1 C2E1503   0.0000
    66 H20         11.1414   -19.2513   -12.7052 H            1 C2E1503   0.0000
    67 H21         11.2870   -20.1149   -11.2109 H            1 C2E1503   0.0000
    68 H1P         19.6228   -18.2892   -18.9788 H            1 C2E1503   0.0000
    69 H23         18.0640   -25.9014   -19.0587 H            1 C2E1503   0.0000
    70 H24         12.2957   -20.1396   -14.7061 H            1 C2E1503   0.0000
@<TRIPOS>BOND
     1    1    2       2
     2    1    3       1
     3    1    4       1
     4    1   32       1
     5    4    5       1
     6    5    6       1
     7    6    7       1
     8    6    8       1
     9    7   12       1
    10    8    9       1
    11    8   10       1
    12    9   24       1
    13   10   11       1
    14   10   12       1
    15   12   13       1
    16   13   14       1
    17   13   23       1
    18   14   15       2
    19   15   16       1
    20   16   17       1
    21   16   23       2
    22   17   18       2
    23   17   19       1
    24   19   20       1
    25   20   21       1
    26   20   22       2
    27   22   23       1
    28   24   25       2
    29   24   26       1
    30   24   27       1
    31   27   28       1
    32   28   29       1
    33   29   30       1
    34   29   31       1
    35   30   35       1
    36   31   32       1
    37   31   33       1
    38   33   34       1
    39   33   35       1
    40   35   36       1
    41   36   37       1
    42   36   46       1
    43   37   38       2
    44   38   39       1
    45   39   40       1
    46   39   46       2
    47   40   41       2
    48   40   42       1
    49   42   43       2
    50   43   44       1
    51   43   45       1
    52   45   46       1
    53   44   67       1
    54    5   47       1
    55    5   48       1
    56    6   49       1
    57    8   50       1
    58   10   51       1
    59   11   52       1
    60   12   53       1
    61   14   54       1
    62   19   55       1
    63   21   56       1
    64   21   57       1
    65    3   68       1
    66   28   58       1
    67   28   59       1
    68   29   60       1
    69   31   61       1
    70   33   62       1
    71   34   63       1
    72   35   64       1
    73   37   65       1
    74   26   69       1
    75   44   66       1
    76   45   70       1
@<TRIPOS>SUBSTRUCTURE
     1 C2E1503     1 GROUP             4 A     C2E     0 **** C2E A1503
