@<TRIPOS>MOLECULE
2qbu_SAH_1_ligand
   46    48     1     0     0
SMALL
NO_CHARGES


@<TRIPOS>ATOM
     1 N          -23.9480    37.0590     1.5440 N.4          1 SAH501   1.0000
     2 CA         -24.1450    37.4690     0.1270 C.3          1 SAH501   0.0000
     3 CB         -23.3240    36.5830    -0.8190 C.3          1 SAH501   0.0000
     4 CG         -21.8440    36.9270    -0.9690 C.3          1 SAH501   0.0000
     5 SD         -21.0200    35.7910    -2.1240 S.3          1 SAH501   0.0000
     6 C          -25.6320    37.3640    -0.2130 C.2          1 SAH501   0.0000
     7 O          -26.4350    36.9130     0.5730 O.co2        1 SAH501   0.0000
     8 OXT        -26.0730    37.7170    -1.2930 O.co2        1 SAH501  -1.0000
     9 C5'        -20.6820    37.0290    -3.4100 C.3          1 SAH501   0.0000
    10 C4'        -21.5490    36.7020    -4.6100 C.3          1 SAH501   0.0000
    11 O4'        -22.8610    37.1320    -4.3130 O.3          1 SAH501   0.0000
    12 C3'        -21.1630    37.3380    -5.9390 C.3          1 SAH501   0.0000
    13 O3'        -20.2190    36.5700    -6.6580 O.3          1 SAH501   0.0000
    14 C2'        -22.5120    37.3730    -6.6410 C.3          1 SAH501   0.0000
    15 O2'        -22.8050    36.1490    -7.3200 O.3          1 SAH501   0.0000
    16 C1'        -23.5010    37.5790    -5.4900 C.3          1 SAH501   0.0000
    17 N9         -23.9040    39.0040    -5.2880 N.pl3        1 SAH501   0.0000
    18 C8         -23.7890    39.7480    -4.1380 C.2          1 SAH501   0.0000
    19 N7         -24.2980    40.9890    -4.3490 N.2          1 SAH501   0.0000
    20 C5         -24.7040    41.0510    -5.6240 C.ar         1 SAH501   0.0000
    21 C6         -25.2890    42.0690    -6.3540 C.ar         1 SAH501   0.0000
    22 N6         -25.5290    43.2510    -5.7810 N.pl3        1 SAH501   0.0000
    23 N1         -25.6270    41.8140    -7.6600 N.ar         1 SAH501   0.0000
    24 C2         -25.3980    40.5970    -8.2590 C.ar         1 SAH501   0.0000
    25 N3         -24.8180    39.5900    -7.5310 N.ar         1 SAH501   0.0000
    26 C4         -24.4820    39.8150    -6.2270 C.ar         1 SAH501   0.0000
    27 H1         -23.1774    37.5638     1.9330 H            1 SAH501   0.0000
    28 H2         -24.7762    37.2596     2.0673 H            1 SAH501   0.0000
    29 HA         -23.8525    38.4192     0.0192 H            1 SAH501   0.0000
    30 HB1        -23.7416    36.6396    -1.7258 H            1 SAH501   0.0000
    31 HB2        -23.3840    35.6433    -0.4824 H            1 SAH501   0.0000
    32 HG1        -21.4014    36.8610    -0.0747 H            1 SAH501   0.0000
    33 HG2        -21.7596    37.8616    -1.3145 H            1 SAH501   0.0000
    34 H5'1       -19.7167    36.9953    -3.6689 H            1 SAH501   0.0000
    35 H5'2       -20.9040    37.9425    -3.0691 H            1 SAH501   0.0000
    36 H4'        -21.5621    35.7091    -4.7280 H            1 SAH501   0.0000
    37 H3'        -20.8204    38.2664    -5.7950 H            1 SAH501   0.0000
    38 H12        -19.6495    37.1762    -7.2131 H            1 SAH501   0.0000
    39 H2'        -22.5534    38.1430    -7.2777 H            1 SAH501   0.0000
    40 H14        -23.6980    36.2198    -7.7644 H            1 SAH501   0.0000
    41 H1'        -24.3173    37.0248    -5.6529 H            1 SAH501   0.0000
    42 H16        -23.3919    39.4253    -3.2788 H            1 SAH501   0.0000
    43 H17        -25.9522    43.9865    -6.3102 H            1 SAH501   0.0000
    44 H18        -25.2855    43.4007    -4.8227 H            1 SAH501   0.0000
    45 H19        -25.6517    40.4483    -9.2148 H            1 SAH501   0.0000
    46 H20        -23.7580    36.0780     1.5838 H            1 SAH501   0.0000
@<TRIPOS>BOND
     1    1    2       1
     2    2    3       1
     3    2    6       1
     4    3    4       1
     5    4    5       1
     6    5    9       1
     7    6    7      ar
     8    6    8      ar
     9    9   10       1
    10   10   11       1
    11   10   12       1
    12   11   16       1
    13   12   13       1
    14   12   14       1
    15   14   15       1
    16   14   16       1
    17   16   17       1
    18   17   18       1
    19   17   26       1
    20   18   19       2
    21   19   20       1
    22   20   21      ar
    23   20   26      ar
    24   21   22       1
    25   21   23      ar
    26   23   24      ar
    27   24   25      ar
    28   25   26      ar
    29    1   27       1
    30    1   28       1
    31    2   29       1
    32    3   30       1
    33    3   31       1
    34    4   32       1
    35    4   33       1
    36    1   46       1
    37    9   34       1
    38    9   35       1
    39   10   36       1
    40   12   37       1
    41   13   38       1
    42   14   39       1
    43   15   40       1
    44   16   41       1
    45   18   42       1
    46   22   43       1
    47   22   44       1
    48   24   45       1
@<TRIPOS>SUBSTRUCTURE
     1 SAH501      1 GROUP             4 B     SAH     0 **** SAH B 501
