@<TRIPOS>MOLECULE
4m81_PNW_1_ligand
   36    37     1     0     0
SMALL
NO_CHARGES


@<TRIPOS>ATOM
     1 C1          61.4930    74.8250     9.2190 C.3          1 PNW502   0.0000
     2 N1          57.6240    77.0060    13.8620 N.2          1 PNW502   1.0000
     3 O1          61.6900    75.6930    10.3270 O.3          1 PNW502   0.0000
     4 C2          62.2270    75.4120     8.0260 C.3          1 PNW502   0.0000
     5 O2          61.6340    76.6690     7.6920 O.3          1 PNW502   0.0000
     6 C3          62.1620    74.4680     6.8330 C.3          1 PNW502   0.0000
     7 O3          62.9480    74.9460     5.7360 O.3          1 PNW502   0.0000
     8 C4          62.6970    73.1140     7.2410 C.3          1 PNW502   0.0000
     9 O4          62.5180    72.2080     6.1410 O.3          1 PNW502   0.0000
    10 C5          61.9250    72.6230     8.4540 C.3          1 PNW502   0.0000
    11 O5          62.0370    73.5460     9.5420 O.3          1 PNW502   0.0000
    12 C6          62.4630    71.2860     8.9100 C.3          1 PNW502   0.0000
    13 O6          63.8530    71.4120     9.2140 O.3          1 PNW502   0.0000
    14 C7          60.6730    75.9850    11.1950 C.ar         1 PNW502   0.0000
    15 O7          57.6740    78.0780    14.4280 O.co2        1 PNW502   0.0000
    16 C8          60.6940    77.2060    11.8540 C.ar         1 PNW502   0.0000
    17 O8          56.6970    76.2490    14.0840 O.co2        1 PNW502  -1.0000
    18 C9          59.6780    77.5400    12.7340 C.ar         1 PNW502   0.0000
    19 C10         58.6360    76.6480    12.9600 C.ar         1 PNW502   0.0000
    20 C11         58.6080    75.4250    12.2980 C.ar         1 PNW502   0.0000
    21 C12         59.6290    75.0880    11.4130 C.ar         1 PNW502   0.0000
    22 H1          60.5173    74.7425     9.0160 H            1 PNW502   0.0000
    23 H2          63.1848    75.5591     8.2731 H            1 PNW502   0.0000
    24 H3          60.6702    76.5325     7.4628 H            1 PNW502   0.0000
    25 H4          61.2107    74.3720     6.5399 H            1 PNW502   0.0000
    26 H5          63.8785    74.5876     5.8115 H            1 PNW502   0.0000
    27 H6          63.6689    73.1872     7.4649 H            1 PNW502   0.0000
    28 H7          63.4079    71.8556     5.8512 H            1 PNW502   0.0000
    29 H8          60.9608    72.5214     8.2091 H            1 PNW502   0.0000
    30 H9          62.3406    70.6114     8.1821 H            1 PNW502   0.0000
    31 H10         61.9686    70.9885     9.7267 H            1 PNW502   0.0000
    32 H11         64.3795    70.7961     8.6280 H            1 PNW502   0.0000
    33 H12         61.4448    77.8466    11.6931 H            1 PNW502   0.0000
    34 H13         59.6940    78.4214    13.2061 H            1 PNW502   0.0000
    35 H14         57.8543    74.7874    12.4577 H            1 PNW502   0.0000
    36 H15         59.6131    74.2085    10.9373 H            1 PNW502   0.0000
@<TRIPOS>BOND
     1    1    3       1
     2    1    4       1
     3    1   11       1
     4    2   15      ar
     5    2   17      ar
     6    2   19       1
     7    3   14       1
     8    4    5       1
     9    4    6       1
    10    6    7       1
    11    6    8       1
    12    8    9       1
    13    8   10       1
    14   10   11       1
    15   10   12       1
    16   12   13       1
    17   14   16      ar
    18   14   21      ar
    19   16   18      ar
    20   18   19      ar
    21   19   20      ar
    22   20   21      ar
    23    1   22       1
    24    4   23       1
    25    5   24       1
    26    6   25       1
    27    7   26       1
    28    8   27       1
    29    9   28       1
    30   10   29       1
    31   12   30       1
    32   12   31       1
    33   13   32       1
    34   16   33       1
    35   18   34       1
    36   20   35       1
    37   21   36       1
@<TRIPOS>SUBSTRUCTURE
     1 PNW502      1 GROUP             4 A     PNW     0 **** PNW A 502
