@<TRIPOS>MOLECULE
1nfb_NAD_2_ligand
   70    74     1     0     0
SMALL
NO_CHARGES


@<TRIPOS>ATOM
     1 PA          48.0280    95.4310   -47.4250 P.3          1 NAD702   0.0000
     2 O1A         48.0770    94.6420   -46.1710 O.co2        1 NAD702   0.0000
     3 O2A         46.8390    95.2840   -48.2900 O.co2        1 NAD702  -1.0000
     4 O5B         48.2220    97.0070   -47.1010 O.3          1 NAD702   0.0000
     5 C5B         49.5140    97.6320   -47.2420 C.3          1 NAD702   0.0000
     6 C4B         49.6690    98.8160   -46.2920 C.3          1 NAD702   0.0000
     7 O4B         48.8400    99.9920   -46.6110 O.3          1 NAD702   0.0000
     8 C3B         49.3170    98.4060   -44.8700 C.3          1 NAD702   0.0000
     9 O3B         50.4820    97.7850   -44.2570 O.3          1 NAD702   0.0000
    10 C2B         48.9710    99.7220   -44.2150 C.3          1 NAD702   0.0000
    11 O2B         50.1590   100.3590   -43.7700 O.3          1 NAD702   0.0000
    12 C1B         48.3590   100.5780   -45.3410 C.3          1 NAD702   0.0000
    13 N9A         46.8750   100.5290   -45.3770 N.pl3        1 NAD702   0.0000
    14 C8A         46.1020    99.4560   -45.6120 C.2          1 NAD702   0.0000
    15 N7A         44.8160    99.8200   -45.5790 N.2          1 NAD702   0.0000
    16 C5A         44.7750   101.1230   -45.3230 C.ar         1 NAD702   0.0000
    17 C6A         43.7480   102.0740   -45.1670 C.ar         1 NAD702   0.0000
    18 N6A         42.4780   101.7190   -45.2750 N.pl3        1 NAD702   0.0000
    19 N1A         44.0650   103.3760   -44.9020 N.ar         1 NAD702   0.0000
    20 C2A         45.3440   103.7790   -44.7840 C.ar         1 NAD702   0.0000
    21 N3A         46.3390   102.8840   -44.9290 N.ar         1 NAD702   0.0000
    22 C4A         46.0830   101.5700   -45.1950 C.ar         1 NAD702   0.0000
    23 O3          49.3460    95.0910   -48.3240 O.3          1 NAD702   0.0000
    24 PN          50.5510    94.1130   -47.8080 P.3          1 NAD702   0.0000
    25 O1N         50.0570    92.7110   -47.7890 O.co2        1 NAD702   0.0000
    26 O2N         51.1420    94.6570   -46.5610 O.co2        1 NAD702  -1.0000
    27 O5D         51.6590    94.2480   -49.0290 O.3          1 NAD702   0.0000
    28 C5D         51.3100    94.5830   -50.4300 C.3          1 NAD702   0.0000
    29 C4D         50.4060    93.5130   -51.1040 C.3          1 NAD702   0.0000
    30 O4D         50.9510    92.1660   -50.9620 O.3          1 NAD702   0.0000
    31 C3D         49.0050    93.4630   -50.5160 C.3          1 NAD702   0.0000
    32 O3D         48.1320    94.3730   -51.1950 O.3          1 NAD702   0.0000
    33 C2D         48.5480    92.0340   -50.6940 C.3          1 NAD702   0.0000
    34 O2D         47.6390    91.9130   -51.7930 O.3          1 NAD702   0.0000
    35 C1D         49.8440    91.2000   -50.9470 C.3          1 NAD702   0.0000
    36 N1N         50.0810    90.0840   -49.9420 N.ar         1 NAD702   1.0000
    37 C2N         48.9920    89.2520   -49.6190 C.ar         1 NAD702   0.0000
    38 C3N         49.1260    88.2050   -48.7110 C.ar         1 NAD702   0.0000
    39 C7N         47.8830    87.3610   -48.4440 C.2          1 NAD702   0.0000
    40 O7N         46.9880    87.2641   -49.2511 O.2          1 NAD702   0.0000
    41 N7N         47.8747    86.6878   -47.3085 N.am         1 NAD702   0.0000
    42 C4N         50.3860    87.9630   -48.0850 C.ar         1 NAD702   0.0000
    43 C5N         51.5170    88.7770   -48.3840 C.ar         1 NAD702   0.0000
    44 C6N         51.3760    89.8480   -49.3180 C.ar         1 NAD702   0.0000
    45 H5B1        49.6180    97.9545   -48.1828 H            1 NAD702   0.0000
    46 H5B2        50.2247    96.9581   -47.0401 H            1 NAD702   0.0000
    47 H4B         50.6277    99.1000   -46.3044 H            1 NAD702   0.0000
    48 H3B         48.5336    97.7846   -44.8603 H            1 NAD702   0.0000
    49 H5          50.2603    97.5117   -43.3210 H            1 NAD702   0.0000
    50 H2B         48.3239    99.5944   -43.4633 H            1 NAD702   0.0000
    51 H7          50.8404    99.6662   -43.5340 H            1 NAD702   0.0000
    52 H1B         48.6697   101.5251   -45.2602 H            1 NAD702   0.0000
    53 H8A         46.4362    98.5295   -45.7847 H            1 NAD702   0.0000
    54 H6A1        41.7565   102.4022   -45.1624 H            1 NAD702   0.0000
    55 H6A2        42.2396   100.7674   -45.4692 H            1 NAD702   0.0000
    56 H2A         45.5537   104.7373   -44.5898 H            1 NAD702   0.0000
    57 H5D1        52.1553    94.6643   -50.9581 H            1 NAD702   0.0000
    58 H5D2        50.8269    95.4585   -50.4373 H            1 NAD702   0.0000
    59 H4D         50.3343    93.7257   -52.0785 H            1 NAD702   0.0000
    60 H3D         49.0384    93.6888   -49.5424 H            1 NAD702   0.0000
    61 H17         48.0828    94.1279   -52.1633 H            1 NAD702   0.0000
    62 H2D         48.1042    91.7173   -49.8557 H            1 NAD702   0.0000
    63 H19         46.7027    92.0441   -51.4671 H            1 NAD702   0.0000
    64 H1D         49.7770    90.7900   -51.8566 H            1 NAD702   0.0000
    65 H2N         48.1048    89.4163   -50.0502 H            1 NAD702   0.0000
    66 H7N1        47.1388    86.0381   -47.1177 H            1 NAD702   0.0000
    67 H7N2        48.6043    86.8276   -46.6390 H            1 NAD702   0.0000
    68 H4N         50.4761    87.2136   -47.4291 H            1 NAD702   0.0000
    69 H5N         52.3981    88.6004   -47.9453 H            1 NAD702   0.0000
    70 H6N         52.1580    90.4299   -49.5413 H            1 NAD702   0.0000
@<TRIPOS>BOND
     1    1    2      ar
     2    1    3      ar
     3    1    4       1
     4    1   23       1
     5    4    5       1
     6    5    6       1
     7    6    7       1
     8    6    8       1
     9    7   12       1
    10    8    9       1
    11    8   10       1
    12   10   11       1
    13   10   12       1
    14   12   13       1
    15   13   14       1
    16   13   22       1
    17   14   15       2
    18   15   16       1
    19   16   17      ar
    20   16   22      ar
    21   17   18       1
    22   17   19      ar
    23   19   20      ar
    24   20   21      ar
    25   21   22      ar
    26   23   24       1
    27   24   25      ar
    28   24   26      ar
    29   24   27       1
    30   27   28       1
    31   28   29       1
    32   29   30       1
    33   29   31       1
    34   30   35       1
    35   31   32       1
    36   31   33       1
    37   33   34       1
    38   33   35       1
    39   35   36       1
    40   36   37      ar
    41   36   44      ar
    42   37   38      ar
    43   38   39       1
    44   38   42      ar
    45   39   40       2
    46   39   41      am
    47   42   43      ar
    48   43   44      ar
    49   44   70       1
    50    5   45       1
    51    5   46       1
    52    6   47       1
    53    8   48       1
    54    9   49       1
    55   10   50       1
    56   11   51       1
    57   12   52       1
    58   14   53       1
    59   18   54       1
    60   18   55       1
    61   20   56       1
    62   43   69       1
    63   28   57       1
    64   28   58       1
    65   29   59       1
    66   31   60       1
    67   32   61       1
    68   33   62       1
    69   34   63       1
    70   35   64       1
    71   37   65       1
    72   41   66       1
    73   41   67       1
    74   42   68       1
@<TRIPOS>SUBSTRUCTURE
     1 NAD702      1 GROUP             4 B     NAD     0 **** NAD B 702
