@<TRIPOS>MOLECULE
3nwy_GTP_2_ligand
   44    46     1     0     0
SMALL
NO_CHARGES


@<TRIPOS>ATOM
     1 PG          83.3270    29.7960    58.7150 P.3          1 GTP262   0.0000
     2 O1G         83.8400    28.6220    57.9110 O.co2        1 GTP262   0.0000
     3 O2G         84.4770    30.6130    59.2840 O.co2        1 GTP262  -1.0000
     4 O3G         82.4250    29.2560    59.8070 O.co2        1 GTP262  -1.0000
     5 O3B         82.4890    30.7640    57.7490 O.3          1 GTP262   0.0000
     6 PB          81.8360    30.1850    56.4080 P.3          1 GTP262   0.0000
     7 O1B         80.4490    30.7580    56.2420 O.co2        1 GTP262   0.0000
     8 O2B         81.8580    28.6750    56.3440 O.co2        1 GTP262  -1.0000
     9 O3A         82.7910    30.7180    55.2540 O.3          1 GTP262   0.0000
    10 PA          82.5980    32.1940    54.6620 P.3          1 GTP262   0.0000
    11 O1A         81.6080    32.0560    53.5380 O.co2        1 GTP262   0.0000
    12 O2A         83.9640    32.6820    54.2070 O.co2        1 GTP262  -1.0000
    13 O5'         81.9050    33.1120    55.8040 O.3          1 GTP262   0.0000
    14 C5'         82.1790    34.4960    55.8650 C.3          1 GTP262   0.0000
    15 C4'         81.1690    35.3570    55.1040 C.3          1 GTP262   0.0000
    16 O4'         81.3880    35.3770    53.6970 O.3          1 GTP262   0.0000
    17 C3'         79.7300    34.9080    55.3050 C.3          1 GTP262   0.0000
    18 O3'         78.9810    36.0120    55.7290 O.3          1 GTP262   0.0000
    19 C2'         79.2580    34.4530    53.9430 C.3          1 GTP262   0.0000
    20 O2'         77.8690    34.6320    53.7510 O.3          1 GTP262   0.0000
    21 C1'         80.1280    35.3230    53.0350 C.3          1 GTP262   0.0000
    22 N9          80.1570    34.7820    51.6540 N.pl3        1 GTP262   0.0000
    23 C8          80.7230    33.6090    51.2360 C.2          1 GTP262   0.0000
    24 N7          80.5140    33.4620    49.9120 N.2          1 GTP262   0.0000
    25 C5          79.8170    34.5220    49.4720 C.2          1 GTP262   0.0000
    26 C6          79.3390    34.8460    48.2110 C.2          1 GTP262   0.0000
    27 O6          79.5470    34.1070    47.2670 O.2          1 GTP262   0.0000
    28 N1          78.6390    36.0090    48.0290 N.pl3        1 GTP262   0.0000
    29 C2          78.4050    36.8470    49.1080 C.2          1 GTP262   0.0000
    30 N2          77.7180    37.9760    48.9030 N.pl3        1 GTP262   0.0000
    31 N3          78.8730    36.5140    50.3780 N.2          1 GTP262   0.0000
    32 C4          79.5750    35.3640    50.5550 C.2          1 GTP262   0.0000
    33 H5'1        83.0863    34.6556    55.4761 H            1 GTP262   0.0000
    34 H5'2        82.1736    34.7769    56.8247 H            1 GTP262   0.0000
    35 H4'         81.2486    36.2951    55.4412 H            1 GTP262   0.0000
    36 H3'         79.6770    34.1628    55.9697 H            1 GTP262   0.0000
    37 H5          78.0297    35.7363    55.8669 H            1 GTP262   0.0000
    38 H2'         79.4935    33.4901    53.8109 H            1 GTP262   0.0000
    39 H7          77.4409    33.7468    53.5689 H            1 GTP262   0.0000
    40 H1'         79.7409    36.2447    53.0091 H            1 GTP262   0.0000
    41 H9          81.2141    32.9627    51.8200 H            1 GTP262   0.0000
    42 H10         78.2980    36.2527    47.1211 H            1 GTP262   0.0000
    43 H11         77.5367    38.5965    49.6660 H            1 GTP262   0.0000
    44 H12         77.3856    38.1997    47.9868 H            1 GTP262   0.0000
@<TRIPOS>BOND
     1    1    2      ar
     2    1    3      ar
     3    1    4      ar
     4    1    5       1
     5    5    6       1
     6    6    7      ar
     7    6    8      ar
     8    6    9       1
     9    9   10       1
    10   10   11      ar
    11   10   12      ar
    12   10   13       1
    13   13   14       1
    14   14   15       1
    15   15   16       1
    16   15   17       1
    17   16   21       1
    18   17   18       1
    19   17   19       1
    20   19   20       1
    21   19   21       1
    22   21   22       1
    23   22   23       1
    24   22   32       1
    25   23   24       2
    26   24   25       1
    27   25   26       1
    28   25   32       2
    29   26   27       2
    30   26   28       1
    31   28   29       1
    32   29   30       1
    33   29   31       2
    34   31   32       1
    35   30   44       1
    36   30   43       1
    37   28   42       1
    38   23   41       1
    39   14   33       1
    40   14   34       1
    41   15   35       1
    42   17   36       1
    43   18   37       1
    44   19   38       1
    45   20   39       1
    46   21   40       1
@<TRIPOS>SUBSTRUCTURE
     1 GTP262      1 GROUP             4 B     GTP     0 **** GTP B 262
