@<TRIPOS>MOLECULE
2x3f_APC_2_ligand
   45    47     1     0     0
SMALL
NO_CHARGES


@<TRIPOS>ATOM
     1 PG          13.5170    37.1190    76.9350 P.3          1 APC1283   0.0000
     2 O1G         12.1830    37.8290    77.0280 O.co2        1 APC1283   0.0000
     3 O2G         14.6380    37.9600    77.5150 O.co2        1 APC1283  -1.0000
     4 O3G         13.4990    35.6900    77.4340 O.co2        1 APC1283  -1.0000
     5 PB          15.0420    37.9480    74.7670 P.3          1 APC1283   0.0000
     6 O1B         16.3870    37.4310    75.2120 O.co2        1 APC1283   0.0000
     7 O2B         14.6140    39.3530    75.1300 O.co2        1 APC1283  -1.0000
     8 O3B         13.8770    37.0020    75.3660 O.3          1 APC1283   0.0000
     9 PA          15.5130    39.4200    72.2310 P.3          1 APC1283   0.0000
    10 O1A         16.2110    39.0920    70.9270 O.co2        1 APC1283   0.0000
    11 O2A         14.3370    40.3790    72.1680 O.co2        1 APC1283  -1.0000
    12 C3A         15.0650    37.8200    72.9610 C.3          1 APC1283   0.0000
    13 O5'         16.6300    40.1120    73.1700 O.3          1 APC1283   0.0000
    14 C5'         17.2800    41.2880    72.6950 C.3          1 APC1283   0.0000
    15 C4'         18.4270    41.6950    73.6080 C.3          1 APC1283   0.0000
    16 O4'         17.9760    41.8720    74.9570 O.3          1 APC1283   0.0000
    17 C3'         19.5310    40.6490    73.6530 C.3          1 APC1283   0.0000
    18 O3'         20.7930    41.3060    73.5020 O.3          1 APC1283   0.0000
    19 C2'         19.3750    40.0160    75.0240 C.3          1 APC1283   0.0000
    20 O2'         20.5750    39.3970    75.5280 O.3          1 APC1283   0.0000
    21 C1'         18.8990    41.2300    75.8320 C.3          1 APC1283   0.0000
    22 N9          18.3200    40.8060    77.1240 N.pl3        1 APC1283   0.0000
    23 C8          17.2360    40.0490    77.2980 C.2          1 APC1283   0.0000
    24 N7          17.0520    39.8510    78.6280 N.2          1 APC1283   0.0000
    25 C5          18.0260    40.4990    79.2980 C.ar         1 APC1283   0.0000
    26 C6          18.3330    40.6580    80.6530 C.ar         1 APC1283   0.0000
    27 N6          17.5580    40.0680    81.5980 N.pl3        1 APC1283   0.0000
    28 N1          19.4100    41.4030    81.0140 N.ar         1 APC1283   0.0000
    29 C2          20.1830    41.9680    80.0660 C.ar         1 APC1283   0.0000
    30 N3          19.8970    41.8200    78.7480 N.ar         1 APC1283   0.0000
    31 C4          18.8280    41.1000    78.3390 C.ar         1 APC1283   0.0000
    32 H3A1        14.1584    37.5502    72.6366 H            1 APC1283   0.0000
    33 H3A2        15.7359    37.1312    72.6863 H            1 APC1283   0.0000
    34 H5'1        16.6151    42.0339    72.6555 H            1 APC1283   0.0000
    35 H5'2        17.6398    41.1133    71.7785 H            1 APC1283   0.0000
    36 H4'         18.8117    42.5576    73.2795 H            1 APC1283   0.0000
    37 H3'         19.4002    39.9673    72.9331 H            1 APC1283   0.0000
    38 H7          20.6763    42.1279    72.9444 H            1 APC1283   0.0000
    39 H2'         18.6430    39.3355    74.9907 H            1 APC1283   0.0000
    40 H9          20.4067    38.4242    75.6870 H            1 APC1283   0.0000
    41 H1'         19.6736    41.8395    76.0007 H            1 APC1283   0.0000
    42 H11         16.6549    39.6871    76.5691 H            1 APC1283   0.0000
    43 H12         17.7775    40.1816    82.5670 H            1 APC1283   0.0000
    44 H13         16.7675    39.5196    81.3254 H            1 APC1283   0.0000
    45 H14         20.9810    42.5055    80.3385 H            1 APC1283   0.0000
@<TRIPOS>BOND
     1    1    2      ar
     2    1    3      ar
     3    1    4      ar
     4    1    8       1
     5    5    6      ar
     6    5    7      ar
     7    5    8       1
     8    5   12       1
     9    9   10      ar
    10    9   11      ar
    11    9   12       1
    12    9   13       1
    13   13   14       1
    14   14   15       1
    15   15   16       1
    16   15   17       1
    17   16   21       1
    18   17   18       1
    19   17   19       1
    20   19   20       1
    21   19   21       1
    22   21   22       1
    23   22   23       1
    24   22   31       1
    25   23   24       2
    26   24   25       1
    27   25   26      ar
    28   25   31      ar
    29   26   27       1
    30   26   28      ar
    31   28   29      ar
    32   29   30      ar
    33   30   31      ar
    34   29   45       1
    35   27   44       1
    36   27   43       1
    37   23   42       1
    38   12   32       1
    39   12   33       1
    40   14   34       1
    41   14   35       1
    42   15   36       1
    43   17   37       1
    44   18   38       1
    45   19   39       1
    46   20   40       1
    47   21   41       1
@<TRIPOS>SUBSTRUCTURE
     1 APC1283     1 GROUP             4 B     APC     0 **** APC B1283
