@<TRIPOS>MOLECULE
3tzl_ADP_1_ligand
   39    41     1     0     0
SMALL
NO_CHARGES


@<TRIPOS>ATOM
     1 PB          47.9520    14.9880    34.5270 P.3          1 ADP330   0.0000
     2 O1B         49.2900    15.4600    34.2900 O.co2        1 ADP330   0.0000
     3 O2B         47.9940    14.6230    35.9080 O.co2        1 ADP330  -1.0000
     4 O3B         47.9170    13.6910    33.9070 O.co2        1 ADP330  -1.0000
     5 PA          46.1100    16.0810    32.9100 P.3          1 ADP330   0.0000
     6 O1A         44.7370    15.6430    33.0700 O.co2        1 ADP330   0.0000
     7 O2A         46.6160    15.0930    31.9440 O.co2        1 ADP330  -1.0000
     8 O3A         46.8360    15.9850    34.2590 O.3          1 ADP330   0.0000
     9 O5'         46.0970    17.5040    32.3050 O.3          1 ADP330   0.0000
    10 C5'         46.4820    17.6540    31.0080 C.3          1 ADP330   0.0000
    11 C4'         46.5830    19.1120    30.7280 C.3          1 ADP330   0.0000
    12 O4'         47.3410    19.8350    31.6340 O.3          1 ADP330   0.0000
    13 C3'         47.1620    19.3570    29.3850 C.3          1 ADP330   0.0000
    14 O3'         46.7430    20.5630    28.9440 O.3          1 ADP330   0.0000
    15 C2'         48.5650    19.4980    29.6820 C.3          1 ADP330   0.0000
    16 O2'         49.1220    20.3730    28.8040 O.3          1 ADP330   0.0000
    17 C1'         48.5520    20.0810    31.0330 C.3          1 ADP330   0.0000
    18 N9          49.6000    19.4800    31.7640 N.pl3        1 ADP330   0.0000
    19 C8          49.4880    18.4390    32.6120 C.2          1 ADP330   0.0000
    20 N7          50.6560    18.1230    33.1120 N.2          1 ADP330   0.0000
    21 C5          51.5970    18.9470    32.5970 C.ar         1 ADP330   0.0000
    22 C6          52.9760    19.0830    32.7510 C.ar         1 ADP330   0.0000
    23 N6          53.7130    18.2600    33.5970 N.pl3        1 ADP330   0.0000
    24 N1          53.5730    20.0240    32.0510 N.ar         1 ADP330   0.0000
    25 C2          52.9230    20.8220    31.2410 C.ar         1 ADP330   0.0000
    26 N3          51.6340    20.7310    31.0700 N.ar         1 ADP330   0.0000
    27 C4          50.9400    19.8220    31.7160 C.ar         1 ADP330   0.0000
    28 H5'1        45.8044    17.2375    30.4019 H            1 ADP330   0.0000
    29 H5'2        47.3704    17.2179    30.8644 H            1 ADP330   0.0000
    30 H4'         45.6569    19.4892    30.7348 H            1 ADP330   0.0000
    31 H3'         46.9728    18.6182    28.7382 H            1 ADP330   0.0000
    32 H5          46.5925    21.1695    29.7247 H            1 ADP330   0.0000
    33 H2'         49.0339    18.6149    29.6677 H            1 ADP330   0.0000
    34 H7          48.4212    20.7014    28.1707 H            1 ADP330   0.0000
    35 H1'         48.7047    21.0676    30.9752 H            1 ADP330   0.0000
    36 H9          48.6309    17.9721    32.8295 H            1 ADP330   0.0000
    37 H10         54.7012    18.3871    33.6821 H            1 ADP330   0.0000
    38 H11         53.2544    17.5415    34.1199 H            1 ADP330   0.0000
    39 H12         53.4308    21.5220    30.7388 H            1 ADP330   0.0000
@<TRIPOS>BOND
     1    1    2      ar
     2    1    3      ar
     3    1    4      ar
     4    1    8       1
     5    5    6      ar
     6    5    7      ar
     7    5    8       1
     8    5    9       1
     9    9   10       1
    10   10   11       1
    11   11   12       1
    12   11   13       1
    13   12   17       1
    14   13   14       1
    15   13   15       1
    16   15   16       1
    17   15   17       1
    18   17   18       1
    19   18   19       1
    20   18   27       1
    21   19   20       2
    22   20   21       1
    23   21   22      ar
    24   21   27      ar
    25   22   23       1
    26   22   24      ar
    27   24   25      ar
    28   25   26      ar
    29   26   27      ar
    30   25   39       1
    31   23   38       1
    32   23   37       1
    33   10   28       1
    34   10   29       1
    35   11   30       1
    36   13   31       1
    37   14   32       1
    38   15   33       1
    39   16   34       1
    40   17   35       1
    41   19   36       1
@<TRIPOS>SUBSTRUCTURE
     1 ADP330      1 GROUP             4 A     ADP     0 **** ADP A 330
