@<TRIPOS>MOLECULE
3wt0_ATP_3_ligand
   43    45     1     0     0
SMALL
NO_CHARGES


@<TRIPOS>ATOM
     1 PG           9.2070   -35.6090    56.0670 P.3          1 ATP400   0.0000
     2 O1G          8.5620   -34.7300    55.0160 O.co2        1 ATP400   0.0000
     3 O2G         10.7130   -35.6020    56.0330 O.co2        1 ATP400  -1.0000
     4 O3G          8.6410   -35.4320    57.4600 O.co2        1 ATP400  -1.0000
     5 PB           9.6890   -38.3410    55.3000 P.3          1 ATP400   0.0000
     6 O1B         11.0410   -38.2450    55.9810 O.co2        1 ATP400   0.0000
     7 O2B          8.8450   -39.5630    55.5830 O.co2        1 ATP400  -1.0000
     8 O3B          8.7510   -37.0920    55.6690 O.3          1 ATP400   0.0000
     9 PA          10.7450   -39.2430    52.8430 P.3          1 ATP400   0.0000
    10 O1A         10.4920   -40.6610    53.3000 O.co2        1 ATP400   0.0000
    11 O2A         12.1740   -38.7630    52.7760 O.co2        1 ATP400  -1.0000
    12 O3A          9.8650   -38.2230    53.7100 O.3          1 ATP400   0.0000
    13 O5'         10.0810   -39.0340    51.3940 O.3          1 ATP400   0.0000
    14 C5'          8.6840   -39.2520    51.2090 C.3          1 ATP400   0.0000
    15 C4'          8.2800   -38.5570    49.9230 C.3          1 ATP400   0.0000
    16 O4'          9.0820   -39.0400    48.8350 O.3          1 ATP400   0.0000
    17 C3'          6.8230   -38.8060    49.5610 C.3          1 ATP400   0.0000
    18 O3'          6.2640   -37.5480    49.1870 O.3          1 ATP400   0.0000
    19 C2'          6.8900   -39.6920    48.3370 C.3          1 ATP400   0.0000
    20 O2'          5.7960   -39.4380    47.4560 O.3          1 ATP400   0.0000
    21 C1'          8.2270   -39.3200    47.7270 C.3          1 ATP400   0.0000
    22 N9           8.7610   -40.4250    46.8940 N.pl3        1 ATP400   0.0000
    23 C8           9.1830   -41.6300    47.3210 C.2          1 ATP400   0.0000
    24 N7           9.6100   -42.3950    46.2830 N.2          1 ATP400   0.0000
    25 C5           9.4550   -41.6700    45.1590 C.ar         1 ATP400   0.0000
    26 C6           9.7060   -41.8720    43.7140 C.ar         1 ATP400   0.0000
    27 N6          10.2220   -43.0360    43.2420 N.pl3        1 ATP400   0.0000
    28 N1           9.4100   -40.8510    42.8830 N.ar         1 ATP400   0.0000
    29 C2           8.8920   -39.6880    43.3260 C.ar         1 ATP400   0.0000
    30 N3           8.6350   -39.4330    44.6200 N.ar         1 ATP400   0.0000
    31 C4           8.8910   -40.3720    45.5660 C.ar         1 ATP400   0.0000
    32 H5'1         8.1738   -38.8687    51.9789 H            1 ATP400   0.0000
    33 H5'2         8.4976   -40.2321    51.1404 H            1 ATP400   0.0000
    34 H4'          8.4270   -37.5731    50.0244 H            1 ATP400   0.0000
    35 H3'          6.3172   -39.2352    50.3093 H            1 ATP400   0.0000
    36 H5           5.3025   -37.6704    48.9408 H            1 ATP400   0.0000
    37 H2'          6.8938   -40.6540    48.6101 H            1 ATP400   0.0000
    38 H7           5.0294   -40.0334    47.6962 H            1 ATP400   0.0000
    39 H1'          8.1232   -38.4979    47.1672 H            1 ATP400   0.0000
    40 H9           9.1822   -41.9234    48.2770 H            1 ATP400   0.0000
    41 H10         10.3833   -43.1503    42.2617 H            1 ATP400   0.0000
    42 H11         10.4407   -43.7789    43.8747 H            1 ATP400   0.0000
    43 H12          8.6877   -38.9757    42.6545 H            1 ATP400   0.0000
@<TRIPOS>BOND
     1    1    2      ar
     2    1    3      ar
     3    1    4      ar
     4    1    8       1
     5    5    6      ar
     6    5    7      ar
     7    5    8       1
     8    5   12       1
     9    9   10      ar
    10    9   11      ar
    11    9   12       1
    12    9   13       1
    13   13   14       1
    14   14   15       1
    15   15   16       1
    16   15   17       1
    17   16   21       1
    18   17   18       1
    19   17   19       1
    20   19   20       1
    21   19   21       1
    22   21   22       1
    23   22   23       1
    24   22   31       1
    25   23   24       2
    26   24   25       1
    27   25   26      ar
    28   25   31      ar
    29   26   27       1
    30   26   28      ar
    31   28   29      ar
    32   29   30      ar
    33   30   31      ar
    34   29   43       1
    35   27   42       1
    36   27   41       1
    37   23   40       1
    38   14   32       1
    39   14   33       1
    40   15   34       1
    41   17   35       1
    42   18   36       1
    43   19   37       1
    44   20   38       1
    45   21   39       1
@<TRIPOS>SUBSTRUCTURE
     1 ATP400      1 GROUP             4 C     ATP     0 **** ATP C 400
