@<TRIPOS>MOLECULE
4mrt_COA_1_ligand
   80    82     1     0     0
SMALL
NO_CHARGES


@<TRIPOS>ATOM
     1 N1A         18.8470    -7.4120    16.5080 N.ar         1 COA302   0.0000
     2 C2A         17.5080    -7.3730    16.6580 C.ar         1 COA302   0.0000
     3 N3A         16.8670    -6.5130    17.4470 N.ar         1 COA302   0.0000
     4 C4A         17.5750    -5.6200    18.1830 C.ar         1 COA302   0.0000
     5 C5A         19.0380    -5.6020    18.0950 C.ar         1 COA302   0.0000
     6 C6A         19.6600    -6.5720    17.1920 C.ar         1 COA302   0.0000
     7 N6A         21.0010    -6.6000    17.0690 N.pl3        1 COA302   0.0000
     8 N7A         19.4840    -4.6280    18.9120 N.2          1 COA302   0.0000
     9 C8A         18.3970    -4.0810    19.4990 C.2          1 COA302   0.0000
    10 N9A         17.2650    -4.6880    19.0680 N.pl3        1 COA302   0.0000
    11 C1B         15.8720    -4.3370    19.4370 C.3          1 COA302   0.0000
    12 C2B         15.7230    -3.8620    20.8700 C.3          1 COA302   0.0000
    13 O2B         14.5340    -4.4680    21.4160 O.3          1 COA302   0.0000
    14 C3B         15.4970    -2.3650    20.6960 C.3          1 COA302   0.0000
    15 O3B         14.6850    -1.7960    21.7130 O.3          1 COA302   0.0000
    16 P3B         15.2610    -0.8240    22.8730 P.3          1 COA302   0.0000
    17 O7A         14.1080     0.0430    23.2760 O.co2        1 COA302   0.0000
    18 O8A         15.6860    -1.7320    23.9960 O.co2        1 COA302  -1.0000
    19 O9A         16.4100    -0.1130    22.2340 O.co2        1 COA302  -1.0000
    20 C4B         14.7240    -2.3450    19.3980 C.3          1 COA302   0.0000
    21 O4B         15.4040    -3.2670    18.5840 O.3          1 COA302   0.0000
    22 C5B         14.6370    -1.0080    18.7060 C.3          1 COA302   0.0000
    23 O5B         14.2590    -1.2420    17.3520 O.3          1 COA302   0.0000
    24 P1A         14.1520     0.0350    16.3850 P.3          1 COA302   0.0000
    25 O1A         13.1980     1.0180    16.9960 O.co2        1 COA302   0.0000
    26 O2A         13.8210    -0.4850    15.0080 O.co2        1 COA302  -1.0000
    27 O3A         15.6120     0.6540    16.5070 O.3          1 COA302   0.0000
    28 P2A         16.4710     1.1790    15.2540 P.3          1 COA302   0.0000
    29 O4A         15.6320     1.4320    14.0090 O.co2        1 COA302   0.0000
    30 O5A         17.3130     2.3600    15.7640 O.co2        1 COA302  -1.0000
    31 O6A         17.5590     0.0110    14.9350 O.3          1 COA302   0.0000
    32 CBP         18.5670    -2.2290    14.8360 C.3          1 COA302   0.0000
    33 CCP         17.6010    -1.2710    15.5480 C.3          1 COA302   0.0000
    34 CDP         19.0070    -2.0080    13.3960 C.3          1 COA302   0.0000
    35 CEP         18.8770    -3.5370    15.5200 C.3          1 COA302   0.0000
    36 CAP         19.8830    -1.5070    15.3870 C.3          1 COA302   0.0000
    37 OAP         19.8510    -1.2670    16.8050 O.3          1 COA302   0.0000
    38 C9P         21.2290    -2.2120    15.1430 C.2          1 COA302   0.0000
    39 O9P         21.7300    -2.2890    14.0210 O.2          1 COA302   0.0000
    40 N8P         21.8500    -2.7590    16.1940 N.am         1 COA302   0.0000
    41 C7P         23.0830    -3.5310    16.0530 C.3          1 COA302   0.0000
    42 C6P         24.3390    -2.6880    16.2100 C.3          1 COA302   0.0000
    43 C5P         25.5860    -3.5660    16.1960 C.2          1 COA302   0.0000
    44 O5P         25.9190    -4.0400    15.1250 O.2          1 COA302   0.0000
    45 N4P         26.2730    -3.7550    17.3490 N.am         1 COA302   0.0000
    46 C3P         27.4750    -4.6000    17.4550 C.3          1 COA302   0.0000
    47 C2P         28.7590    -3.8560    17.8460 C.3          1 COA302   0.0000
    48 S1P         30.2390    -4.9250    17.7050 S.3          1 COA302   0.0000
    49 H2A         16.9605    -8.0328    16.1433 H            1 COA302   0.0000
    50 H6A1        21.5646    -5.9614    17.5930 H            1 COA302   0.0000
    51 H6A2        21.4330    -7.2594    16.4537 H            1 COA302   0.0000
    52 H8A         18.4242    -3.3315    20.1604 H            1 COA302   0.0000
    53 H1B         15.2895    -5.1382    19.2997 H            1 COA302   0.0000
    54 H2B         16.5344    -4.0601    21.4198 H            1 COA302   0.0000
    55 H7          13.7400    -4.1907    20.8750 H            1 COA302   0.0000
    56 H3B         16.3645    -1.8753    20.6087 H            1 COA302   0.0000
    57 H4B         13.7982    -2.6832    19.5670 H            1 COA302   0.0000
    58 H5B1        15.5257    -0.5505    18.7369 H            1 COA302   0.0000
    59 H5B2        13.9517    -0.4358    19.1565 H            1 COA302   0.0000
    60 HCP1        16.6829    -1.6669    15.5277 H            1 COA302   0.0000
    61 HCP2        17.8967    -1.1635    16.4972 H            1 COA302   0.0000
    62 HDP1        19.6324    -2.7388    13.1227 H            1 COA302   0.0000
    63 HDP2        18.2056    -2.0141    12.7979 H            1 COA302   0.0000
    64 HDP3        19.4721    -1.1259    13.3212 H            1 COA302   0.0000
    65 HEP1        19.5131    -4.0649    14.9572 H            1 COA302   0.0000
    66 HEP2        19.2917    -3.3567    16.4119 H            1 COA302   0.0000
    67 HEP3        18.0317    -4.0567    15.6443 H            1 COA302   0.0000
    68 HAP         19.9354    -0.6139    14.9403 H            1 COA302   0.0000
    69 H21         19.9260    -0.2851    16.9787 H            1 COA302   0.0000
    70 H8P         21.4579    -2.6357    17.1056 H            1 COA302   0.0000
    71 H7P1        23.0932    -3.9505    15.1453 H            1 COA302   0.0000
    72 H7P2        23.0914    -4.2468    16.7512 H            1 COA302   0.0000
    73 H6P1        24.2957    -2.1938    17.0783 H            1 COA302   0.0000
    74 H6P2        24.3907    -2.0332    15.4560 H            1 COA302   0.0000
    75 H4P         25.9454    -3.2949    18.1742 H            1 COA302   0.0000
    76 H3P1        27.6270    -5.0357    16.5679 H            1 COA302   0.0000
    77 H3P2        27.3007    -5.3019    18.1456 H            1 COA302   0.0000
    78 H2P1        28.6756    -3.5428    18.7920 H            1 COA302   0.0000
    79 H2P2        28.8717    -3.0668    17.2423 H            1 COA302   0.0000
    80 H1P         31.0519    -4.4052    17.9675 H            1 COA302   0.0000
@<TRIPOS>BOND
     1    1    2      ar
     2    1    6      ar
     3    2    3      ar
     4    3    4      ar
     5    4    5      ar
     6    4   10       1
     7    5    6      ar
     8    5    8       1
     9    6    7       1
    10    8    9       2
    11    9   10       1
    12   10   11       1
    13   11   12       1
    14   11   21       1
    15   12   13       1
    16   12   14       1
    17   14   15       1
    18   14   20       1
    19   15   16       1
    20   16   17      ar
    21   16   18      ar
    22   16   19      ar
    23   20   21       1
    24   20   22       1
    25   22   23       1
    26   23   24       1
    27   24   25      ar
    28   24   26      ar
    29   24   27       1
    30   27   28       1
    31   28   29      ar
    32   28   30      ar
    33   28   31       1
    34   31   33       1
    35   32   33       1
    36   32   34       1
    37   32   35       1
    38   32   36       1
    39   36   37       1
    40   36   38       1
    41   38   39       2
    42   38   40      am
    43   40   41       1
    44   41   42       1
    45   42   43       1
    46   43   44       2
    47   43   45      am
    48   45   46       1
    49   46   47       1
    50   47   48       1
    51    2   49       1
    52    7   50       1
    53    7   51       1
    54    9   52       1
    55   11   53       1
    56   12   54       1
    57   13   55       1
    58   14   56       1
    59   48   80       1
    60   47   79       1
    61   20   57       1
    62   22   58       1
    63   22   59       1
    64   47   78       1
    65   46   77       1
    66   33   60       1
    67   33   61       1
    68   34   62       1
    69   34   63       1
    70   34   64       1
    71   35   65       1
    72   35   66       1
    73   35   67       1
    74   36   68       1
    75   37   69       1
    76   40   70       1
    77   41   71       1
    78   41   72       1
    79   42   73       1
    80   42   74       1
    81   45   75       1
    82   46   76       1
@<TRIPOS>SUBSTRUCTURE
     1 COA302      1 GROUP             4 A     COA     0 **** COA A 302
