@<TRIPOS>MOLECULE
3iup_NDP_1_ligand
   73    77     1     0     0
SMALL
NO_CHARGES


@<TRIPOS>ATOM
     1 PA          26.4550    36.3990    20.9190 P.3          1 NDP401   0.0000
     2 O1A         27.3910    36.2130    19.8300 O.co2        1 NDP401   0.0000
     3 O2A         26.3110    35.3360    21.9380 O.co2        1 NDP401  -1.0000
     4 O5B         26.9510    37.7970    21.6540 O.3          1 NDP401   0.0000
     5 C5B         26.1330    38.2780    22.7260 C.3          1 NDP401   0.0000
     6 C4B         26.6230    39.6370    23.1230 C.3          1 NDP401   0.0000
     7 O4B         25.7630    40.0620    24.1400 O.3          1 NDP401   0.0000
     8 C3B         28.0590    39.6270    23.6720 C.3          1 NDP401   0.0000
     9 O3B         28.9010    40.6260    23.1360 O.3          1 NDP401   0.0000
    10 C2B         27.8650    39.9220    25.1760 C.3          1 NDP401   0.0000
    11 O2B         28.9030    40.7100    25.7580 O.3          1 NDP401   0.0000
    12 C1B         26.5550    40.6970    25.1510 C.3          1 NDP401   0.0000
    13 N9A         25.8020    40.6120    26.4090 N.pl3        1 NDP401   0.0000
    14 C8A         25.4810    39.4410    27.0650 C.2          1 NDP401   0.0000
    15 N7A         24.7180    39.7400    28.1310 N.2          1 NDP401   0.0000
    16 C5A         24.5250    41.1080    28.1680 C.ar         1 NDP401   0.0000
    17 C6A         23.8390    41.9860    29.0310 C.ar         1 NDP401   0.0000
    18 N6A         23.2290    41.5890    30.1620 N.pl3        1 NDP401   0.0000
    19 N1A         23.8480    43.3380    28.7570 N.ar         1 NDP401   0.0000
    20 C2A         24.5300    43.8450    27.6950 C.ar         1 NDP401   0.0000
    21 N3A         25.1970    42.9850    26.8530 N.ar         1 NDP401   0.0000
    22 C4A         25.1990    41.6500    27.0810 C.ar         1 NDP401   0.0000
    23 O3          24.9350    36.7130    20.4660 O.3          1 NDP401   0.0000
    24 PN          24.3560    36.6210    19.0190 P.3          1 NDP401   0.0000
    25 O1N         25.0930    37.3800    18.0390 O.co2        1 NDP401   0.0000
    26 O2N         24.0290    35.2050    18.6380 O.co2        1 NDP401  -1.0000
    27 O5D         22.9300    37.3730    19.2580 O.3          1 NDP401   0.0000
    28 C5D         22.9140    38.7960    19.4500 C.3          1 NDP401   0.0000
    29 C4D         21.5300    39.2330    19.9180 C.3          1 NDP401   0.0000
    30 O4D         20.6730    39.2120    18.7570 O.3          1 NDP401   0.0000
    31 C3D         20.8710    38.3580    21.0040 C.3          1 NDP401   0.0000
    32 O3D         20.1520    39.1440    21.9330 O.3          1 NDP401   0.0000
    33 C2D         19.8910    37.5370    20.1820 C.3          1 NDP401   0.0000
    34 O2D         18.7920    36.9940    20.8980 O.3          1 NDP401   0.0000
    35 C1D         19.4520    38.6080    19.1800 C.3          1 NDP401   0.0000
    36 N1N         18.7260    38.0630    18.0100 N.ar         1 NDP401   1.0000
    37 C2N         17.4130    38.3880    17.9180 C.ar         1 NDP401   0.0000
    38 C3N         16.6350    37.9270    16.8890 C.ar         1 NDP401   0.0000
    39 C7N         15.2070    38.4120    16.7280 C.2          1 NDP401   0.0000
    40 O7N         14.4580    37.7950    15.7300 O.2          1 NDP401   0.0000
    41 N7N         14.6340    39.3530    17.4900 N.am         1 NDP401   0.0000
    42 C4N         17.2780    37.2990    15.7140 C.ar         1 NDP401   0.0000
    43 C5N         18.7440    36.9990    15.9040 C.ar         1 NDP401   0.0000
    44 C6N         19.4150    37.4050    17.0510 C.ar         1 NDP401   0.0000
    45 P2B         29.6140    40.2690    27.1730 P.3          1 NDP401   0.0000
    46 O1X         30.8970    39.5130    26.8010 O.co2        1 NDP401   0.0000
    47 O2X         28.7080    39.4030    28.0430 O.co2        1 NDP401  -1.0000
    48 O3X         29.9130    41.6110    27.8590 O.co2        1 NDP401  -1.0000
    49 H5B1        26.1974    37.6549    23.5055 H            1 NDP401   0.0000
    50 H5B2        25.1815    38.3371    22.4242 H            1 NDP401   0.0000
    51 H4B         26.5618    40.2609    22.3439 H            1 NDP401   0.0000
    52 H3B         28.4706    38.7243    23.5470 H            1 NDP401   0.0000
    53 H5          29.8108    40.5493    23.5439 H            1 NDP401   0.0000
    54 H2B         27.7523    39.0683    25.6843 H            1 NDP401   0.0000
    55 H1B         26.7223    41.6532    24.9109 H            1 NDP401   0.0000
    56 H8A         25.7682    38.5226    26.7927 H            1 NDP401   0.0000
    57 H6A1        22.7567    42.2575    30.7365 H            1 NDP401   0.0000
    58 H6A2        23.2478    40.6253    30.4285 H            1 NDP401   0.0000
    59 H2A         24.5465    44.8308    27.5281 H            1 NDP401   0.0000
    60 H5D1        23.1325    39.2509    18.5867 H            1 NDP401   0.0000
    61 H5D2        23.5932    39.0465    20.1399 H            1 NDP401   0.0000
    62 H4D         21.5883    40.1724    20.2558 H            1 NDP401   0.0000
    63 H3D         21.5428    37.7751    21.4611 H            1 NDP401   0.0000
    64 H16         20.7751    39.7870    22.3783 H            1 NDP401   0.0000
    65 H2D         20.3786    36.8060    19.7045 H            1 NDP401   0.0000
    66 H18         18.0326    37.6446    20.8867 H            1 NDP401   0.0000
    67 H1D         18.8828    39.2880    19.6422 H            1 NDP401   0.0000
    68 H2N         17.0041    38.9763    18.6156 H            1 NDP401   0.0000
    69 H7N1        13.6852    39.6217    17.3237 H            1 NDP401   0.0000
    70 H7N2        15.1550    39.7868    18.2251 H            1 NDP401   0.0000
    71 H4N         16.7848    37.0919    14.8691 H            1 NDP401   0.0000
    72 H5N         19.2406    36.5003    15.1936 H            1 NDP401   0.0000
    73 H6N         20.3899    37.2139    17.1650 H            1 NDP401   0.0000
@<TRIPOS>BOND
     1    1    2      ar
     2    1    3      ar
     3    1    4       1
     4    1   23       1
     5    4    5       1
     6    5    6       1
     7    6    7       1
     8    6    8       1
     9    7   12       1
    10    8    9       1
    11    8   10       1
    12   10   11       1
    13   10   12       1
    14   11   45       1
    15   12   13       1
    16   13   14       1
    17   13   22       1
    18   14   15       2
    19   15   16       1
    20   16   17      ar
    21   16   22      ar
    22   17   18       1
    23   17   19      ar
    24   19   20      ar
    25   20   21      ar
    26   21   22      ar
    27   23   24       1
    28   24   25      ar
    29   24   26      ar
    30   24   27       1
    31   27   28       1
    32   28   29       1
    33   29   30       1
    34   29   31       1
    35   30   35       1
    36   31   32       1
    37   31   33       1
    38   33   34       1
    39   33   35       1
    40   35   36       1
    41   36   37      ar
    42   36   44      ar
    43   37   38      ar
    44   38   39       1
    45   38   42      ar
    46   39   40       2
    47   39   41      am
    48   42   43      ar
    49   43   44      ar
    50   45   46      ar
    51   45   47      ar
    52   45   48      ar
    53   43   72       1
    54    5   49       1
    55    5   50       1
    56    6   51       1
    57    8   52       1
    58    9   53       1
    59   10   54       1
    60   12   55       1
    61   14   56       1
    62   18   57       1
    63   18   58       1
    64   20   59       1
    65   44   73       1
    66   28   60       1
    67   28   61       1
    68   29   62       1
    69   31   63       1
    70   32   64       1
    71   33   65       1
    72   34   66       1
    73   35   67       1
    74   37   68       1
    75   41   69       1
    76   41   70       1
    77   42   71       1
@<TRIPOS>SUBSTRUCTURE
     1 NDP401      1 GROUP             4 A     NDP     0 **** NDP A 401
