@<TRIPOS>MOLECULE
5egh_PC_1_ligand
   24    23     1     0     0
SMALL
NO_CHARGES


@<TRIPOS>ATOM
     1 P1           1.6610    -3.3080    -5.3060 P.3          1 PC512    0.0000
     2 O1           2.6140    -4.2870    -5.9970 O.co2        1 PC512    0.0000
     3 O3           2.5440    -2.5080    -4.3740 O.co2        1 PC512   -1.0000
     4 O4           0.5710    -4.0390    -4.5550 O.co2        1 PC512   -1.0000
     5 O2           1.0110    -2.4640    -6.4400 O.3          1 PC512    0.0000
     6 C1           1.8060    -1.5760    -7.1480 C.3          1 PC512    0.0000
     7 C2           1.2400    -0.1620    -7.3520 C.3          1 PC512    0.0000
     8 N1           0.0360     0.0940    -8.1830 N.4          1 PC512    1.0000
     9 C3          -0.1390     1.5540    -8.2870 C.3          1 PC512    0.0000
    10 C4          -1.1300    -0.4640    -7.5120 C.3          1 PC512    0.0000
    11 C5           0.0440    -0.4040    -9.5700 C.3          1 PC512    0.0000
    12 H1           1.9714    -1.9704    -8.0519 H            1 PC512    0.0000
    13 H2           2.6737    -1.4883    -6.6587 H            1 PC512    0.0000
    14 H3           1.9781     0.3789    -7.7553 H            1 PC512    0.0000
    15 H4           1.0296     0.1891    -6.4396 H            1 PC512    0.0000
    16 H5          -0.9455     1.7543    -8.8433 H            1 PC512    0.0000
    17 H6          -0.2600     1.9412    -7.3730 H            1 PC512    0.0000
    18 H7           0.6698     1.9570    -8.7153 H            1 PC512    0.0000
    19 H8          -1.9455    -0.2956    -8.0657 H            1 PC512    0.0000
    20 H9          -1.0060    -1.4490    -7.3921 H            1 PC512    0.0000
    21 H10         -1.2391    -0.0305    -6.6175 H            1 PC512    0.0000
    22 H11         -0.8197    -0.1663   -10.0145 H            1 PC512    0.0000
    23 H12          0.8024     0.0142   -10.0700 H            1 PC512    0.0000
    24 H13          0.1548    -1.3978    -9.5667 H            1 PC512    0.0000
@<TRIPOS>BOND
     1    1    2      ar
     2    1    3      ar
     3    1    4      ar
     4    1    5       1
     5    5    6       1
     6    6    7       1
     7    7    8       1
     8    8    9       1
     9    8   10       1
    10    8   11       1
    11   11   24       1
    12   11   23       1
    13    6   12       1
    14    6   13       1
    15    7   14       1
    16    7   15       1
    17    9   16       1
    18    9   17       1
    19    9   18       1
    20   10   19       1
    21   10   20       1
    22   10   21       1
    23   11   22       1
@<TRIPOS>SUBSTRUCTURE
     1 PC512       1 GROUP             4 A      PC     0 ****  PC A 512
