@<TRIPOS>MOLECULE
5exd_TPP_2_ligand
   42    43     1     0     0
SMALL
NO_CHARGES


@<TRIPOS>ATOM
     1 N1'        -35.3010    70.1660   -28.0600 N.ar         1 TPP402   0.0000
     2 C2'        -35.0910    70.6980   -29.2490 C.ar         1 TPP402   0.0000
     3 CM2        -35.0360    72.2320   -29.3570 C.3          1 TPP402   0.0000
     4 N3'        -34.9340    69.9510   -30.3360 N.ar         1 TPP402   0.0000
     5 C4'        -34.9810    68.6040   -30.2680 C.ar         1 TPP402   0.0000
     6 N4'        -34.8050    67.8150   -31.4480 N.pl3        1 TPP402   0.0000
     7 C5'        -35.2080    67.9970   -29.0230 C.ar         1 TPP402   0.0000
     8 C6'        -35.3610    68.8470   -27.8980 C.ar         1 TPP402   0.0000
     9 C7'        -35.2640    66.4380   -28.8220 C.3          1 TPP402   0.0000
    10 N3         -36.2190    65.7080   -29.5810 N.2          1 TPP402   1.0000
    11 C2         -35.9470    64.9560   -30.7200 C.2          1 TPP402   0.0000
    12 S1         -37.1950    64.1660   -31.4040 S.3          1 TPP402   0.0000
    13 C5         -38.1580    64.7560   -30.2340 C.2          1 TPP402   0.0000
    14 C4         -37.5310    65.5770   -29.2800 C.2          1 TPP402   0.0000
    15 CM4        -38.2000    66.2480   -28.0810 C.3          1 TPP402   0.0000
    16 C6         -39.6260    64.3470   -30.2670 C.3          1 TPP402   0.0000
    17 C7         -40.6400    65.4790   -30.6180 C.3          1 TPP402   0.0000
    18 O7         -41.8850    65.1510   -29.9810 O.3          1 TPP402   0.0000
    19 PA         -43.2250    65.2940   -30.7980 P.3          1 TPP402   0.0000
    20 O1A        -43.3580    66.7170   -31.2820 O.co2        1 TPP402   0.0000
    21 O2A        -44.3820    64.9640   -29.9100 O.co2        1 TPP402  -1.0000
    22 O3A        -43.2100    64.2990   -32.0390 O.3          1 TPP402   0.0000
    23 PB         -43.1760    62.7050   -31.9140 P.3          1 TPP402   0.0000
    24 O1B        -43.6860    62.1120   -33.1970 O.co2        1 TPP402   0.0000
    25 O2B        -41.7580    62.2240   -31.6670 O.co2        1 TPP402  -1.0000
    26 O3B        -44.0550    62.2690   -30.7730 O.co2        1 TPP402  -1.0000
    27 HM21       -34.8720    72.4935   -30.3082 H            1 TPP402   0.0000
    28 HM22       -35.9054    72.6192   -29.0500 H            1 TPP402   0.0000
    29 HM23       -34.2949    72.5802   -28.7830 H            1 TPP402   0.0000
    30 H4'1       -34.8407    66.8172   -31.3922 H            1 TPP402   0.0000
    31 H4'2       -34.6462    68.2612   -32.3287 H            1 TPP402   0.0000
    32 H6'        -35.5129    68.4576   -26.9895 H            1 TPP402   0.0000
    33 H7'1       -35.4575    66.2682   -27.8557 H            1 TPP402   0.0000
    34 H7'2       -34.3606    66.0748   -29.0499 H            1 TPP402   0.0000
    35 H9         -35.0243    64.9032   -31.1019 H            1 TPP402   0.0000
    36 HM41       -39.1703    66.0070   -28.0627 H            1 TPP402   0.0000
    37 HM42       -37.7630    65.9357   -27.2375 H            1 TPP402   0.0000
    38 HM43       -38.1045    67.2404   -28.1582 H            1 TPP402   0.0000
    39 H13        -39.8652    63.9904   -29.3639 H            1 TPP402   0.0000
    40 H14        -39.7271    63.6226   -30.9489 H            1 TPP402   0.0000
    41 H15        -40.7658    65.5305   -31.6087 H            1 TPP402   0.0000
    42 H16        -40.3031    66.3573   -30.2787 H            1 TPP402   0.0000
@<TRIPOS>BOND
     1    1    2      ar
     2    1    8      ar
     3    2    3       1
     4    2    4      ar
     5    4    5      ar
     6    5    6       1
     7    5    7      ar
     8    7    8      ar
     9    7    9       1
    10    9   10       1
    11   10   11       2
    12   10   14       1
    13   11   12       1
    14   12   13       1
    15   13   14       2
    16   13   16       1
    17   14   15       1
    18   16   17       1
    19   17   18       1
    20   18   19       1
    21   19   20      ar
    22   19   21      ar
    23   19   22       1
    24   22   23       1
    25   23   24      ar
    26   23   25      ar
    27   23   26      ar
    28    3   27       1
    29    3   28       1
    30    3   29       1
    31    6   30       1
    32    6   31       1
    33    8   32       1
    34    9   33       1
    35    9   34       1
    36   11   35       1
    37   15   36       1
    38   15   37       1
    39   15   38       1
    40   16   39       1
    41   16   40       1
    42   17   41       1
    43   17   42       1
@<TRIPOS>SUBSTRUCTURE
     1 TPP402      1 GROUP             4 I     TPP     0 **** TPP I 402
