@<TRIPOS>MOLECULE
2z0y_SAM_2_ligand
   50    52     1     0     0
SMALL
NO_CHARGES


@<TRIPOS>ATOM
     1 N            7.8320     4.0110    -1.1590 N.4          1 SAM400   1.0000
     2 CA           7.5420     4.1880     0.2710 C.3          1 SAM400   0.0000
     3 C            6.0740     3.8400     0.5330 C.2          1 SAM400   0.0000
     4 O            5.5350     3.0390    -0.2600 O.co2        1 SAM400   0.0000
     5 OXT          5.5270     4.3790     1.5200 O.co2        1 SAM400  -1.0000
     6 CB           7.8080     5.6390     0.6760 C.3          1 SAM400   0.0000
     7 CG           9.2670     6.0240     0.4190 C.3          1 SAM400   0.0000
     8 SD          10.4590     4.9810     1.3360 S.3          1 SAM400   1.0000
     9 CE          10.4250     5.7890     2.9210 C.3          1 SAM400   0.0000
    10 C5'         12.1790     5.3320     0.8220 C.3          1 SAM400   0.0000
    11 C4'         13.1560     4.2470     1.2780 C.3          1 SAM400   0.0000
    12 O4'         13.1800     4.0710     2.7040 O.3          1 SAM400   0.0000
    13 C3'         12.7460     2.8660     0.7700 C.3          1 SAM400   0.0000
    14 O3'         13.0560     2.7710    -0.6220 O.3          1 SAM400   0.0000
    15 C2'         13.7590     2.0580     1.5780 C.3          1 SAM400   0.0000
    16 O2'         15.0740     2.2850     1.0650 O.3          1 SAM400   0.0000
    17 C1'         13.6250     2.7230     2.9510 C.3          1 SAM400   0.0000
    18 N9          12.5810     2.0570     3.7600 N.pl3        1 SAM400   0.0000
    19 C8          11.5840     2.6660     4.3990 C.2          1 SAM400   0.0000
    20 N7          10.8750     1.7660     5.0780 N.2          1 SAM400   0.0000
    21 C5          11.4260     0.5740     4.8720 C.ar         1 SAM400   0.0000
    22 C6          11.1390    -0.7140     5.3070 C.ar         1 SAM400   0.0000
    23 N6          10.1260    -0.9340     6.1400 N.pl3        1 SAM400   0.0000
    24 N1          11.9130    -1.7270     4.8920 N.ar         1 SAM400   0.0000
    25 C2          12.9370    -1.5160     4.0840 C.ar         1 SAM400   0.0000
    26 N3          13.2400    -0.3050     3.6510 N.ar         1 SAM400   0.0000
    27 C4          12.5100     0.7560     4.0250 C.ar         1 SAM400   0.0000
    28 H1           7.6565     4.8681    -1.6433 H            1 SAM400   0.0000
    29 H2           8.7911     3.7528    -1.2752 H            1 SAM400   0.0000
    30 HA           8.1284     3.5805     0.8068 H            1 SAM400   0.0000
    31 HB1          7.6080     5.7483     1.6497 H            1 SAM400   0.0000
    32 HB2          7.2127     6.2410     0.1438 H            1 SAM400   0.0000
    33 HG1          9.3983     6.9758     0.6963 H            1 SAM400   0.0000
    34 HG2          9.4522     5.9333    -0.5595 H            1 SAM400   0.0000
    35 HE1         11.0455     5.3185     3.5484 H            1 SAM400   0.0000
    36 HE2         10.7148     6.7403     2.8165 H            1 SAM400   0.0000
    37 HE3          9.4955     5.7622     3.2889 H            1 SAM400   0.0000
    38 H5'1        12.4610     6.2055     1.2188 H            1 SAM400   0.0000
    39 H5'2        12.2100     5.3935    -0.1756 H            1 SAM400   0.0000
    40 H4'         14.0757     4.4651     0.9514 H            1 SAM400   0.0000
    41 H3'         11.7965     2.6332     0.9804 H            1 SAM400   0.0000
    42 H15         12.5560     3.4769    -1.1238 H            1 SAM400   0.0000
    43 H2'         13.5284     1.0854     1.6064 H            1 SAM400   0.0000
    44 H17         15.2746     1.6124     0.3527 H            1 SAM400   0.0000
    45 H1'         14.5014     2.7216     3.4326 H            1 SAM400   0.0000
    46 H19         11.3965     3.6479     4.3730 H            1 SAM400   0.0000
    47 H20          9.9255    -1.8637     6.4488 H            1 SAM400   0.0000
    48 H21          9.5648    -0.1697     6.4576 H            1 SAM400   0.0000
    49 H22         13.4965    -2.2921     3.7930 H            1 SAM400   0.0000
    50 H23          7.2457     3.2916    -1.5315 H            1 SAM400   0.0000
@<TRIPOS>BOND
     1    1    2       1
     2    2    3       1
     3    2    6       1
     4    3    4      ar
     5    3    5      ar
     6    6    7       1
     7    7    8       1
     8    8    9       1
     9    8   10       1
    10   10   11       1
    11   11   12       1
    12   11   13       1
    13   12   17       1
    14   13   14       1
    15   13   15       1
    16   15   16       1
    17   15   17       1
    18   17   18       1
    19   18   19       1
    20   18   27       1
    21   19   20       2
    22   20   21       1
    23   21   22      ar
    24   21   27      ar
    25   22   23       1
    26   22   24      ar
    27   24   25      ar
    28   25   26      ar
    29   26   27      ar
    30    1   28       1
    31    1   29       1
    32    2   30       1
    33    1   50       1
    34    6   31       1
    35    6   32       1
    36    7   33       1
    37    7   34       1
    38    9   35       1
    39    9   36       1
    40    9   37       1
    41   10   38       1
    42   10   39       1
    43   11   40       1
    44   13   41       1
    45   14   42       1
    46   15   43       1
    47   16   44       1
    48   17   45       1
    49   19   46       1
    50   23   47       1
    51   23   48       1
    52   25   49       1
@<TRIPOS>SUBSTRUCTURE
     1 SAM400      1 GROUP             4 B     SAM     0 **** SAM B 400
