@<TRIPOS>MOLECULE
3tik_JKF_1_ligand
   58    62     1     0     0
SMALL
NO_CHARGES


@<TRIPOS>ATOM
     1 CAA        -17.1690    -4.4550    17.8590 C.3          1 JKF490   0.0000
     2 CAB        -21.5520    -4.8090    18.3480 C.3          1 JKF490   0.0000
     3 CAC        -21.4170    -5.8370    11.7170 C.3          1 JKF490   0.0000
     4 OAD        -21.3340    -3.2250    11.1510 O.2          1 JKF490   0.0000
     5 FAE        -21.2160    -2.2370    16.5890 F            1 JKF490   0.0000
     6 FAF        -17.5690    -1.3280    13.7970 F            1 JKF490   0.0000
     7 CLAG       -14.2380    -9.9590    17.5510 Cl           1 JKF490   0.0000
     8 CAH        -18.5050     0.2120    16.8430 C.ar         1 JKF490   0.0000
     9 CAI        -19.6490    -0.5140    17.1410 C.ar         1 JKF490   0.0000
    10 CAJ        -17.7930    -0.0750    15.6870 C.ar         1 JKF490   0.0000
    11 CAK        -16.0290    -8.3080    18.6940 C.ar         1 JKF490   0.0000
    12 CAL        -16.1960    -8.5290    16.2970 C.ar         1 JKF490   0.0000
    13 CAM        -17.1020    -7.4410    18.6720 C.ar         1 JKF490   0.0000
    14 CAN        -17.2700    -7.6490    16.2730 C.ar         1 JKF490   0.0000
    15 CAO        -19.8480    -6.8760    15.4690 C.ar         1 JKF490   0.0000
    16 CAP        -19.9990    -8.0890    18.7890 C.2          1 JKF490   0.0000
    17 CAQ        -20.3540    -6.4900    14.2360 C.ar         1 JKF490   0.0000
    18 CAR        -21.8480    -7.0670    19.3370 C.2          1 JKF490   0.0000
    19 CAS        -20.3680    -2.5040    13.0590 C.2          1 JKF490   0.0000
    20 CAT        -19.3150    -4.5610    15.9070 C.ar         1 JKF490   0.0000
    21 NAU        -21.1700    -8.2170    19.4310 N.2          1 JKF490   0.0000
    22 OAV        -18.4310    -5.0190    18.2310 O.3          1 JKF490   0.0000
    23 CAW        -15.5800    -8.8560    17.5060 C.ar         1 JKF490   0.0000
    24 CAX        -20.0750    -1.5200    16.2810 C.ar         1 JKF490   0.0000
    25 CAY        -18.2210    -1.0820    14.8310 C.ar         1 JKF490   0.0000
    26 CAZ        -17.7280    -7.1010    17.4750 C.ar         1 JKF490   0.0000
    27 CBA        -19.3000    -5.9010    16.2860 C.ar         1 JKF490   0.0000
    28 CBB        -19.8280    -2.8310    14.2890 C.2          1 JKF490   0.0000
    29 CBC        -19.3580    -1.8200    15.1250 C.ar         1 JKF490   0.0000
    30 CBD        -19.9750    -6.8480    18.3160 C.2          1 JKF490   0.0000
    31 CBE        -20.8690    -3.5150    12.2470 C.2          1 JKF490   0.0000
    32 CBF        -19.8350    -4.1760    14.6820 C.ar         1 JKF490   0.0000
    33 CBG        -20.3530    -5.1530    13.8360 C.ar         1 JKF490   0.0000
    34 NBH        -21.1060    -6.2090    18.6460 N.pl3        1 JKF490   0.0000
    35 NBI        -20.8600    -4.8040    12.6360 N.pl3        1 JKF490   0.0000
    36 CBJ        -18.8120    -6.2250    17.5300 C.3          1 JKF490   0.0000
    37 HAA1       -17.0007    -3.6299    18.3983 H            1 JKF490   0.0000
    38 HAA2       -16.4426    -5.1202    18.0320 H            1 JKF490   0.0000
    39 HAA3       -17.1821    -4.2210    16.8869 H            1 JKF490   0.0000
    40 HAB1       -20.8450    -4.3394    17.8192 H            1 JKF490   0.0000
    41 HAB2       -22.4011    -4.8348    17.8203 H            1 JKF490   0.0000
    42 HAB3       -21.7074    -4.3190    19.2057 H            1 JKF490   0.0000
    43 HAC1       -21.3401    -6.7384    12.1430 H            1 JKF490   0.0000
    44 HAC2       -22.3793    -5.6360    11.5336 H            1 JKF490   0.0000
    45 HAC3       -20.9053    -5.8296    10.8579 H            1 JKF490   0.0000
    46 HAH        -18.1954     0.9377    17.4575 H            1 JKF490   0.0000
    47 HAI        -20.1664    -0.3141    17.9731 H            1 JKF490   0.0000
    48 HAJ        -16.9676     0.4457    15.4690 H            1 JKF490   0.0000
    49 HAK        -15.5814    -8.5374    19.5583 H            1 JKF490   0.0000
    50 HAL        -15.8624    -8.9303    15.4440 H            1 JKF490   0.0000
    51 HAM        -17.4359    -7.0501    19.5297 H            1 JKF490   0.0000
    52 HAN        -17.7101    -7.4104    15.4073 H            1 JKF490   0.0000
    53 HAO        -19.8782    -7.8323    15.7599 H            1 JKF490   0.0000
    54 HAP        -19.2890    -8.7858    18.6873 H            1 JKF490   0.0000
    55 HAQ        -20.7273    -7.1846    13.6210 H            1 JKF490   0.0000
    56 HAR        -22.7539    -6.8856    19.7197 H            1 JKF490   0.0000
    57 HAS        -20.3978    -1.5512    12.7569 H            1 JKF490   0.0000
    58 HAT        -18.9459    -3.8683    16.5266 H            1 JKF490   0.0000
@<TRIPOS>BOND
     1    1   22       1
     2    2   34       1
     3    3   35       1
     4    4   31       2
     5    5   24       1
     6    6   25       1
     7    7   23       1
     8    8    9      ar
     9    8   10      ar
    10    9   24      ar
    11   10   25      ar
    12   11   13      ar
    13   11   23      ar
    14   12   14      ar
    15   12   23      ar
    16   13   26      ar
    17   14   26      ar
    18   15   17      ar
    19   15   27      ar
    20   16   21       1
    21   16   30       2
    22   17   33      ar
    23   18   21       2
    24   18   34       1
    25   19   28       2
    26   19   31       1
    27   20   27      ar
    28   20   32      ar
    29   22   36       1
    30   24   29      ar
    31   25   29      ar
    32   26   36       1
    33   27   36       1
    34   28   29       1
    35   28   32       1
    36   30   34       1
    37   30   36       1
    38   31   35       1
    39   32   33      ar
    40   33   35       1
    41    1   37       1
    42    1   38       1
    43    1   39       1
    44    2   40       1
    45    2   41       1
    46    2   42       1
    47    3   43       1
    48    3   44       1
    49    3   45       1
    50    8   46       1
    51    9   47       1
    52   10   48       1
    53   11   49       1
    54   12   50       1
    55   13   51       1
    56   14   52       1
    57   15   53       1
    58   16   54       1
    59   17   55       1
    60   18   56       1
    61   19   57       1
    62   20   58       1
@<TRIPOS>SUBSTRUCTURE
     1 JKF490      1 GROUP             4 A     JKF     0 **** JKF A 490
