@<TRIPOS>MOLECULE
1emd_NAD_1_ligand
   70    74     1     0     0
SMALL
NO_CHARGES


@<TRIPOS>ATOM
     1 PA           6.4050   -11.1300     4.9540 P.3          1 NAD314   0.0000
     2 O1A          6.5960   -12.5840     5.1800 O.co2        1 NAD314   0.0000
     3 O2A          5.1640   -10.6310     4.3500 O.co2        1 NAD314  -1.0000
     4 O5B          7.6980   -10.3750     4.2740 O.3          1 NAD314   0.0000
     5 C5B          9.1000   -10.7520     4.4240 C.3          1 NAD314   0.0000
     6 C4B          9.9080   -10.8150     3.1120 C.3          1 NAD314   0.0000
     7 O4B         11.2450   -11.2560     3.4170 O.3          1 NAD314   0.0000
     8 C3B          9.3770   -11.8520     2.1020 C.3          1 NAD314   0.0000
     9 O3B          8.9180   -11.3000     0.8640 O.3          1 NAD314   0.0000
    10 C2B         10.5160   -12.8280     1.8560 C.3          1 NAD314   0.0000
    11 O2B         10.5320   -13.4670     0.5580 O.3          1 NAD314   0.0000
    12 C1B         11.6420   -11.8880     2.1990 C.3          1 NAD314   0.0000
    13 N9A         12.9460   -12.5480     2.2940 N.pl3        1 NAD314   0.0000
    14 C8A         13.4030   -13.4550     3.1860 C.2          1 NAD314   0.0000
    15 N7A         14.7460   -13.5030     3.1700 N.2          1 NAD314   0.0000
    16 C5A         15.0760   -12.5980     2.2490 C.ar         1 NAD314   0.0000
    17 C6A         16.3470   -12.1150     2.0030 C.ar         1 NAD314   0.0000
    18 N6A         17.4650   -12.7330     2.3070 N.pl3        1 NAD314   0.0000
    19 N1A         16.4060   -11.0540     1.1950 N.ar         1 NAD314   0.0000
    20 C2A         15.3230   -10.5310     0.6340 C.ar         1 NAD314   0.0000
    21 N3A         14.1020   -10.9970     0.8170 N.ar         1 NAD314   0.0000
    22 C4A         13.9720   -12.0180     1.6680 C.ar         1 NAD314   0.0000
    23 O3           6.4700   -10.5850     6.4420 O.3          1 NAD314   0.0000
    24 PN           6.5740    -9.0670     6.8990 P.3          1 NAD314   0.0000
    25 O1N          5.4040    -8.7040     7.7400 O.co2        1 NAD314   0.0000
    26 O2N          6.7700    -8.1910     5.7170 O.co2        1 NAD314  -1.0000
    27 O5D          7.8690    -9.3940     7.8480 O.3          1 NAD314   0.0000
    28 C5D          8.7650    -8.3410     8.2250 C.3          1 NAD314   0.0000
    29 C4D          9.9650    -8.6160     9.1260 C.3          1 NAD314   0.0000
    30 O4D         10.3200    -7.2900     9.5890 O.3          1 NAD314   0.0000
    31 C3D          9.6430    -9.3730    10.4160 C.3          1 NAD314   0.0000
    32 O3D         10.8030    -9.8310    11.1320 O.3          1 NAD314   0.0000
    33 C2D          8.9830    -8.2820    11.2580 C.3          1 NAD314   0.0000
    34 O2D          8.6930    -8.7600    12.6020 O.3          1 NAD314   0.0000
    35 C1D         10.0800    -7.2270    11.0220 C.3          1 NAD314   0.0000
    36 N1N          9.7470    -5.8370    11.3530 N.ar         1 NAD314   1.0000
    37 C2N         10.0080    -5.1470    12.5600 C.ar         1 NAD314   0.0000
    38 C3N          9.6290    -3.8160    12.7170 C.ar         1 NAD314   0.0000
    39 C7N          9.8790    -3.0320    13.9770 C.2          1 NAD314   0.0000
    40 O7N          9.1850    -2.0660    14.2890 O.2          1 NAD314   0.0000
    41 N7N         10.9250    -3.4360    14.6470 N.am         1 NAD314   0.0000
    42 C4N          8.9130    -3.1780    11.7540 C.ar         1 NAD314   0.0000
    43 C5N          8.5840    -3.8710    10.6030 C.ar         1 NAD314   0.0000
    44 C6N          9.0150    -5.1780    10.3980 C.ar         1 NAD314   0.0000
    45 H5B1         9.1332   -11.6555     4.8513 H            1 NAD314   0.0000
    46 H5B2         9.5375   -10.0829     5.0247 H            1 NAD314   0.0000
    47 H4B          9.9371    -9.9103     2.6869 H            1 NAD314   0.0000
    48 H3B          8.6204   -12.3490     2.5268 H            1 NAD314   0.0000
    49 H5           9.6701   -10.8178     0.4148 H            1 NAD314   0.0000
    50 H2B         10.4766   -13.5404     2.5567 H            1 NAD314   0.0000
    51 H7          11.0646   -12.9114    -0.0805 H            1 NAD314   0.0000
    52 H1B         11.6954   -11.1890     1.4858 H            1 NAD314   0.0000
    53 H8A         12.8213   -14.0139     3.7770 H            1 NAD314   0.0000
    54 H6A1        18.3449   -12.3093     2.0921 H            1 NAD314   0.0000
    55 H6A2        17.4365   -13.6274     2.7534 H            1 NAD314   0.0000
    56 H2A         15.4390    -9.7369     0.0374 H            1 NAD314   0.0000
    57 H5D1         8.2120    -7.6502     8.6908 H            1 NAD314   0.0000
    58 H5D2         9.1289    -7.9594     7.3753 H            1 NAD314   0.0000
    59 H4D         10.7149    -9.0452     8.6226 H            1 NAD314   0.0000
    60 H3D          9.0081   -10.1257    10.2418 H            1 NAD314   0.0000
    61 H17         10.5151   -10.3140    11.9590 H            1 NAD314   0.0000
    62 H2D          8.1350    -7.9869    10.8178 H            1 NAD314   0.0000
    63 H19          8.2626    -8.0282    13.1304 H            1 NAD314   0.0000
    64 H1D         10.9103    -7.4955    11.5104 H            1 NAD314   0.0000
    65 H2N         10.4703    -5.6206    13.3097 H            1 NAD314   0.0000
    66 H7N1        11.1786    -2.9807    15.5005 H            1 NAD314   0.0000
    67 H7N2        11.4722    -4.2006    14.3065 H            1 NAD314   0.0000
    68 H4N          8.6297    -2.2266    11.8751 H            1 NAD314   0.0000
    69 H5N          8.0254    -3.4239     9.9044 H            1 NAD314   0.0000
    70 H6N          8.7880    -5.6435     9.5426 H            1 NAD314   0.0000
@<TRIPOS>BOND
     1    1    2      ar
     2    1    3      ar
     3    1    4       1
     4    1   23       1
     5    4    5       1
     6    5    6       1
     7    6    7       1
     8    6    8       1
     9    7   12       1
    10    8    9       1
    11    8   10       1
    12   10   11       1
    13   10   12       1
    14   12   13       1
    15   13   14       1
    16   13   22       1
    17   14   15       2
    18   15   16       1
    19   16   17      ar
    20   16   22      ar
    21   17   18       1
    22   17   19      ar
    23   19   20      ar
    24   20   21      ar
    25   21   22      ar
    26   23   24       1
    27   24   25      ar
    28   24   26      ar
    29   24   27       1
    30   27   28       1
    31   28   29       1
    32   29   30       1
    33   29   31       1
    34   30   35       1
    35   31   32       1
    36   31   33       1
    37   33   34       1
    38   33   35       1
    39   35   36       1
    40   36   37      ar
    41   36   44      ar
    42   37   38      ar
    43   38   39       1
    44   38   42      ar
    45   39   40       2
    46   39   41      am
    47   42   43      ar
    48   43   44      ar
    49   44   70       1
    50    5   45       1
    51    5   46       1
    52    6   47       1
    53    8   48       1
    54    9   49       1
    55   10   50       1
    56   11   51       1
    57   12   52       1
    58   14   53       1
    59   18   54       1
    60   18   55       1
    61   20   56       1
    62   43   69       1
    63   28   57       1
    64   28   58       1
    65   29   59       1
    66   31   60       1
    67   32   61       1
    68   33   62       1
    69   34   63       1
    70   35   64       1
    71   37   65       1
    72   41   66       1
    73   41   67       1
    74   42   68       1
@<TRIPOS>SUBSTRUCTURE
     1 NAD314      1 GROUP             4 A     NAD     0 **** NAD A 314
