@<TRIPOS>MOLECULE
4kdr_SAH_1_ligand
   46    48     1     0     0
SMALL
NO_CHARGES


@<TRIPOS>ATOM
     1 N          -17.9960     4.0790   -13.8710 N.4          1 SAH301   1.0000
     2 CA         -19.0120     4.4460   -12.8810 C.3          1 SAH301   0.0000
     3 CB         -18.8580     5.9030   -12.4470 C.3          1 SAH301   0.0000
     4 CG         -18.5770     6.8560   -13.6030 C.3          1 SAH301   0.0000
     5 SD         -18.5750     8.5860   -13.0550 S.3          1 SAH301   0.0000
     6 C          -20.3970     4.2160   -13.4700 C.2          1 SAH301   0.0000
     7 O          -20.5670     4.3120   -14.6870 O.co2        1 SAH301   0.0000
     8 OXT        -21.3650     3.9400   -12.7560 O.co2        1 SAH301  -1.0000
     9 C5'        -16.8210     8.7900   -13.4760 C.3          1 SAH301   0.0000
    10 C4'        -15.8500     8.3690   -12.3760 C.3          1 SAH301   0.0000
    11 O4'        -14.5340     8.2600   -12.9010 O.3          1 SAH301   0.0000
    12 C3'        -15.7660     9.3310   -11.1960 C.3          1 SAH301   0.0000
    13 O3'        -16.0430     8.6230   -10.0050 O.3          1 SAH301   0.0000
    14 C2'        -14.3230     9.7980   -11.1680 C.3          1 SAH301   0.0000
    15 O2'        -13.8170    10.0370    -9.8600 O.3          1 SAH301   0.0000
    16 C1'        -13.6100     8.6880   -11.9190 C.3          1 SAH301   0.0000
    17 N9         -12.3730     9.1750   -12.5620 N.pl3        1 SAH301   0.0000
    18 C8         -12.2160    10.3220   -13.3110 C.2          1 SAH301   0.0000
    19 N7         -10.9220    10.3900   -13.7100 N.2          1 SAH301   0.0000
    20 C5         -10.2630     9.3130   -13.2210 C.ar         1 SAH301   0.0000
    21 C6          -8.9440     8.8990   -13.3280 C.ar         1 SAH301   0.0000
    22 N6          -8.0690     9.6340   -14.0200 N.pl3        1 SAH301   0.0000
    23 N1          -8.5600     7.7200   -12.7120 N.ar         1 SAH301   0.0000
    24 C2          -9.4720     6.9620   -12.0030 C.ar         1 SAH301   0.0000
    25 N3         -10.7860     7.3790   -11.9020 N.ar         1 SAH301   0.0000
    26 C4         -11.1650     8.5380   -12.5020 C.ar         1 SAH301   0.0000
    27 H1         -18.1197     3.1230   -14.1369 H            1 SAH301   0.0000
    28 H2         -18.0892     4.6638   -14.6768 H            1 SAH301   0.0000
    29 HA         -18.9038     3.8595   -12.0783 H            1 SAH301   0.0000
    30 HB1        -18.0999     5.9612   -11.7975 H            1 SAH301   0.0000
    31 HB2        -19.7042     6.1906   -11.9983 H            1 SAH301   0.0000
    32 HG1        -19.2833     6.7372   -14.3008 H            1 SAH301   0.0000
    33 HG2        -17.6826     6.6380   -13.9935 H            1 SAH301   0.0000
    34 H5'1       -16.6599     9.7553   -13.6816 H            1 SAH301   0.0000
    35 H5'2       -16.6293     8.2396   -14.2886 H            1 SAH301   0.0000
    36 H4'        -16.1294     7.4719   -12.0336 H            1 SAH301   0.0000
    37 H3'        -16.3929    10.1014   -11.3125 H            1 SAH301   0.0000
    38 H12        -15.3736     7.8891    -9.8901 H            1 SAH301   0.0000
    39 H2'        -14.2494    10.6422   -11.6989 H            1 SAH301   0.0000
    40 H14        -13.4095     9.1971    -9.5016 H            1 SAH301   0.0000
    41 H1'        -13.3985     7.9345   -11.2965 H            1 SAH301   0.0000
    42 H16        -12.9316    10.9875   -13.5229 H            1 SAH301   0.0000
    43 H17         -7.1174     9.3366   -14.0980 H            1 SAH301   0.0000
    44 H18         -8.3656    10.4816   -14.4600 H            1 SAH301   0.0000
    45 H19         -9.1816     6.1122   -11.5632 H            1 SAH301   0.0000
    46 H20        -17.0857     4.1998   -13.4750 H            1 SAH301   0.0000
@<TRIPOS>BOND
     1    1    2       1
     2    2    3       1
     3    2    6       1
     4    3    4       1
     5    4    5       1
     6    5    9       1
     7    6    7      ar
     8    6    8      ar
     9    9   10       1
    10   10   11       1
    11   10   12       1
    12   11   16       1
    13   12   13       1
    14   12   14       1
    15   14   15       1
    16   14   16       1
    17   16   17       1
    18   17   18       1
    19   17   26       1
    20   18   19       2
    21   19   20       1
    22   20   21      ar
    23   20   26      ar
    24   21   22       1
    25   21   23      ar
    26   23   24      ar
    27   24   25      ar
    28   25   26      ar
    29    1   27       1
    30    1   28       1
    31    2   29       1
    32    3   30       1
    33    3   31       1
    34    4   32       1
    35    4   33       1
    36    1   46       1
    37    9   34       1
    38    9   35       1
    39   10   36       1
    40   12   37       1
    41   13   38       1
    42   14   39       1
    43   15   40       1
    44   16   41       1
    45   18   42       1
    46   22   43       1
    47   22   44       1
    48   24   45       1
@<TRIPOS>SUBSTRUCTURE
     1 SAH301      1 GROUP             4 A     SAH     0 **** SAH A 301
