@<TRIPOS>MOLECULE
4kug_NAD_3_ligand
   70    74     1     0     0
SMALL
NO_CHARGES


@<TRIPOS>ATOM
     1 PA         -16.0750   -17.9470   -21.4630 P.3          1 NAD301   0.0000
     2 O1A        -15.5380   -16.6650   -20.8220 O.co2        1 NAD301   0.0000
     3 O2A        -17.5570   -18.2220   -21.6600 O.co2        1 NAD301  -1.0000
     4 O5B        -15.4450   -19.2200   -20.7050 O.3          1 NAD301   0.0000
     5 C5B        -14.1310   -19.1090   -20.1610 C.3          1 NAD301   0.0000
     6 C4B        -14.1360   -19.5420   -18.7030 C.3          1 NAD301   0.0000
     7 O4B        -12.8110   -19.3490   -18.2510 O.3          1 NAD301   0.0000
     8 C3B        -15.0220   -18.7650   -17.7040 C.3          1 NAD301   0.0000
     9 O3B        -15.9500   -19.6300   -17.0380 O.3          1 NAD301   0.0000
    10 C2B        -14.0580   -18.1700   -16.6840 C.3          1 NAD301   0.0000
    11 O2B        -14.4630   -18.1670   -15.3000 O.3          1 NAD301   0.0000
    12 C1B        -12.9340   -19.1530   -16.8660 C.3          1 NAD301   0.0000
    13 N9A        -11.6650   -18.7090   -16.3300 N.pl3        1 NAD301   0.0000
    14 C8A        -11.1900   -17.4480   -16.2570 C.2          1 NAD301   0.0000
    15 N7A         -9.9590   -17.4620   -15.6820 N.2          1 NAD301   0.0000
    16 C5A         -9.6900   -18.7510   -15.3910 C.ar         1 NAD301   0.0000
    17 C6A         -8.5780   -19.4680   -14.7800 C.ar         1 NAD301   0.0000
    18 N6A         -7.5370   -18.7030   -14.3810 N.pl3        1 NAD301   0.0000
    19 N1A         -8.6620   -20.8350   -14.6560 N.ar         1 NAD301   0.0000
    20 C2A         -9.7440   -21.5540   -15.0590 C.ar         1 NAD301   0.0000
    21 N3A        -10.8100   -20.9540   -15.6380 N.ar         1 NAD301   0.0000
    22 C4A        -10.8200   -19.5870   -15.8150 C.ar         1 NAD301   0.0000
    23 O3         -15.2880   -17.9200   -22.8860 O.3          1 NAD301   0.0000
    24 PN         -15.0420   -19.1650   -23.8760 P.3          1 NAD301   0.0000
    25 O1N        -15.9330   -18.9970   -25.0790 O.co2        1 NAD301   0.0000
    26 O2N        -15.1620   -20.4260   -23.0140 O.co2        1 NAD301  -1.0000
    27 O5D        -13.5270   -18.9020   -24.3920 O.3          1 NAD301   0.0000
    28 C5D        -12.4550   -19.7320   -23.9330 C.3          1 NAD301   0.0000
    29 C4D        -11.2190   -19.7530   -24.8390 C.3          1 NAD301   0.0000
    30 O4D        -11.4560   -20.4780   -26.0480 O.3          1 NAD301   0.0000
    31 C3D        -10.7130   -18.4020   -25.2950 C.3          1 NAD301   0.0000
    32 O3D         -9.2890   -18.5230   -25.2320 O.3          1 NAD301   0.0000
    33 C2D        -11.1790   -18.2350   -26.7220 C.3          1 NAD301   0.0000
    34 O2D        -10.2590   -17.4890   -27.5250 O.3          1 NAD301   0.0000
    35 C1D        -11.1620   -19.6700   -27.1930 C.3          1 NAD301   0.0000
    36 N1N        -12.1190   -20.0200   -28.2300 N.ar         1 NAD301   1.0000
    37 C2N        -13.4090   -19.6940   -28.0840 C.ar         1 NAD301   0.0000
    38 C3N        -14.3360   -20.0610   -29.0640 C.ar         1 NAD301   0.0000
    39 C7N        -15.7760   -19.6630   -28.8740 C.2          1 NAD301   0.0000
    40 O7N        -16.5686   -19.7998   -29.7903 O.2          1 NAD301   0.0000
    41 N7N        -16.2086   -19.1748   -27.7179 N.am         1 NAD301   0.0000
    42 C4N        -13.9130   -20.7960   -30.1760 C.ar         1 NAD301   0.0000
    43 C5N        -12.5780   -21.1360   -30.2910 C.ar         1 NAD301   0.0000
    44 C6N        -11.6950   -20.7400   -29.2870 C.ar         1 NAD301   0.0000
    45 H5B1       -13.8254   -18.1589   -20.2237 H            1 NAD301   0.0000
    46 H5B2       -13.5073   -19.6946   -20.6787 H            1 NAD301   0.0000
    47 H4B        -14.3608   -20.5150   -18.6515 H            1 NAD301   0.0000
    48 H3B        -15.5136   -18.0345   -18.1779 H            1 NAD301   0.0000
    49 H5         -15.4479   -20.3327   -16.5340 H            1 NAD301   0.0000
    50 H2B        -13.7712   -17.2546   -16.9664 H            1 NAD301   0.0000
    51 H7         -14.1591   -19.0130   -14.8619 H            1 NAD301   0.0000
    52 H1B        -13.1852   -20.0196   -16.4348 H            1 NAD301   0.0000
    53 H8A        -11.6694   -16.6305   -16.5764 H            1 NAD301   0.0000
    54 H6A1        -6.7392   -19.1280   -13.9534 H            1 NAD301   0.0000
    55 H6A2        -7.5649   -17.7122   -14.5135 H            1 NAD301   0.0000
    56 H2A         -9.7520   -22.5449   -14.9249 H            1 NAD301   0.0000
    57 H5D1       -12.7986   -20.6679   -23.8552 H            1 NAD301   0.0000
    58 H5D2       -12.1732   -19.4044   -23.0312 H            1 NAD301   0.0000
    59 H4D        -10.4798   -20.2096   -24.3439 H            1 NAD301   0.0000
    60 H3D        -11.0476   -17.6647   -24.7082 H            1 NAD301   0.0000
    61 H17         -8.8683   -17.6630   -25.5208 H            1 NAD301   0.0000
    62 H2D        -12.0996   -17.8468   -26.7635 H            1 NAD301   0.0000
    63 H19        -10.7605   -16.9977   -28.2371 H            1 NAD301   0.0000
    64 H1D        -10.2420   -19.8919   -27.5159 H            1 NAD301   0.0000
    65 H2N        -13.7092   -19.1886   -27.2750 H            1 NAD301   0.0000
    66 H7N1       -17.1730   -18.9351   -27.6059 H            1 NAD301   0.0000
    67 H7N2       -15.5701   -19.0466   -26.9590 H            1 NAD301   0.0000
    68 H4N        -14.5681   -21.0722   -30.8792 H            1 NAD301   0.0000
    69 H5N        -12.2514   -21.6565   -31.0799 H            1 NAD301   0.0000
    70 H6N        -10.7302   -20.9948   -29.3526 H            1 NAD301   0.0000
@<TRIPOS>BOND
     1    1    2      ar
     2    1    3      ar
     3    1    4       1
     4    1   23       1
     5    4    5       1
     6    5    6       1
     7    6    7       1
     8    6    8       1
     9    7   12       1
    10    8    9       1
    11    8   10       1
    12   10   11       1
    13   10   12       1
    14   12   13       1
    15   13   14       1
    16   13   22       1
    17   14   15       2
    18   15   16       1
    19   16   17      ar
    20   16   22      ar
    21   17   18       1
    22   17   19      ar
    23   19   20      ar
    24   20   21      ar
    25   21   22      ar
    26   23   24       1
    27   24   25      ar
    28   24   26      ar
    29   24   27       1
    30   27   28       1
    31   28   29       1
    32   29   30       1
    33   29   31       1
    34   30   35       1
    35   31   32       1
    36   31   33       1
    37   33   34       1
    38   33   35       1
    39   35   36       1
    40   36   37      ar
    41   36   44      ar
    42   37   38      ar
    43   38   39       1
    44   38   42      ar
    45   39   40       2
    46   39   41      am
    47   42   43      ar
    48   43   44      ar
    49   44   70       1
    50    5   45       1
    51    5   46       1
    52    6   47       1
    53    8   48       1
    54    9   49       1
    55   10   50       1
    56   11   51       1
    57   12   52       1
    58   14   53       1
    59   18   54       1
    60   18   55       1
    61   20   56       1
    62   43   69       1
    63   28   57       1
    64   28   58       1
    65   29   59       1
    66   31   60       1
    67   32   61       1
    68   33   62       1
    69   34   63       1
    70   35   64       1
    71   37   65       1
    72   41   66       1
    73   41   67       1
    74   42   68       1
@<TRIPOS>SUBSTRUCTURE
     1 NAD301      1 GROUP             4 C     NAD     0 **** NAD C 301
