@<TRIPOS>MOLECULE
3tkl_GTP_1_ligand
   44    46     1     0     0
SMALL
NO_CHARGES


@<TRIPOS>ATOM
     1 PG          10.9270   -11.4170   -19.1540 P.3          1 GTP301   0.0000
     2 O1G         11.3080   -12.3600   -18.0130 O.co2        1 GTP301   0.0000
     3 O2G         11.9310   -10.2590   -19.0740 O.co2        1 GTP301  -1.0000
     4 O3G          9.5120   -10.9550   -18.9740 O.co2        1 GTP301  -1.0000
     5 O3B         11.0600   -12.1550   -20.6010 O.3          1 GTP301   0.0000
     6 PB          12.2130   -12.9770   -21.1850 P.3          1 GTP301   0.0000
     7 O1B         13.1210   -12.0970   -21.9910 O.co2        1 GTP301   0.0000
     8 O2B         12.9620   -13.7480   -20.1640 O.co2        1 GTP301  -1.0000
     9 O3A         11.5220   -13.9970   -22.2460 O.3          1 GTP301   0.0000
    10 PA          11.5500   -15.5570   -22.0500 P.3          1 GTP301   0.0000
    11 O1A         13.0400   -16.0010   -22.0890 O.co2        1 GTP301   0.0000
    12 O2A         10.7820   -15.9820   -20.8000 O.co2        1 GTP301  -1.0000
    13 O5'         10.8630   -16.0910   -23.3460 O.3          1 GTP301   0.0000
    14 C5'          9.7550   -15.5010   -23.8270 C.3          1 GTP301   0.0000
    15 C4'          8.9700   -16.3120   -24.7480 C.3          1 GTP301   0.0000
    16 O4'          9.5350   -16.1700   -26.0730 O.3          1 GTP301   0.0000
    17 C3'          9.1110   -17.7530   -24.4100 C.3          1 GTP301   0.0000
    18 O3'          8.0240   -18.2070   -23.6820 O.3          1 GTP301   0.0000
    19 C2'          9.1340   -18.4290   -25.7010 C.3          1 GTP301   0.0000
    20 O2'          7.8600   -18.7490   -26.0860 O.3          1 GTP301   0.0000
    21 C1'          9.6280   -17.4330   -26.6740 C.3          1 GTP301   0.0000
    22 N9          10.9580   -17.7220   -27.1400 N.pl3        1 GTP301   0.0000
    23 C8          12.0940   -17.5880   -26.5140 C.2          1 GTP301   0.0000
    24 N7          13.0710   -17.9350   -27.1760 N.2          1 GTP301   0.0000
    25 C5          12.7300   -18.3790   -28.3780 C.2          1 GTP301   0.0000
    26 C6          13.2920   -18.8780   -29.5290 C.2          1 GTP301   0.0000
    27 O6          14.6910   -19.0380   -29.6420 O.2          1 GTP301   0.0000
    28 N1          12.5190   -19.2330   -30.5800 N.pl3        1 GTP301   0.0000
    29 C2          11.1650   -19.1020   -30.5580 C.2          1 GTP301   0.0000
    30 N2          10.4080   -19.4740   -31.6530 N.pl3        1 GTP301   0.0000
    31 N3          10.5700   -18.6260   -29.4710 N.2          1 GTP301   0.0000
    32 C4          11.2710   -18.2730   -28.4020 C.2          1 GTP301   0.0000
    33 H5'1        10.0314   -14.6682   -24.3067 H            1 GTP301   0.0000
    34 H5'2         9.1710   -15.2608   -23.0516 H            1 GTP301   0.0000
    35 H4'          8.0092   -16.0351   -24.7379 H            1 GTP301   0.0000
    36 H3'          9.9623   -17.9164   -23.9113 H            1 GTP301   0.0000
    37 H5           8.3150   -18.9458   -23.0741 H            1 GTP301   0.0000
    38 H2'          9.7214   -19.2379   -25.6780 H            1 GTP301   0.0000
    39 H7           7.2971   -18.9094   -25.2752 H            1 GTP301   0.0000
    40 H1'          9.0154   -17.4441   -27.4643 H            1 GTP301   0.0000
    41 H9          12.1645   -17.2353   -25.5809 H            1 GTP301   0.0000
    42 H10         12.9563   -19.6036   -31.3994 H            1 GTP301   0.0000
    43 H11          9.4132   -19.3750   -31.6300 H            1 GTP301   0.0000
    44 H12         10.8551   -19.8421   -32.4682 H            1 GTP301   0.0000
@<TRIPOS>BOND
     1    1    2      ar
     2    1    3      ar
     3    1    4      ar
     4    1    5       1
     5    5    6       1
     6    6    7      ar
     7    6    8      ar
     8    6    9       1
     9    9   10       1
    10   10   11      ar
    11   10   12      ar
    12   10   13       1
    13   13   14       1
    14   14   15       1
    15   15   16       1
    16   15   17       1
    17   16   21       1
    18   17   18       1
    19   17   19       1
    20   19   20       1
    21   19   21       1
    22   21   22       1
    23   22   23       1
    24   22   32       1
    25   23   24       2
    26   24   25       1
    27   25   26       1
    28   25   32       2
    29   26   27       2
    30   26   28       1
    31   28   29       1
    32   29   30       1
    33   29   31       2
    34   31   32       1
    35   30   44       1
    36   30   43       1
    37   28   42       1
    38   23   41       1
    39   14   33       1
    40   14   34       1
    41   15   35       1
    42   17   36       1
    43   18   37       1
    44   19   38       1
    45   20   39       1
    46   21   40       1
@<TRIPOS>SUBSTRUCTURE
     1 GTP301      1 GROUP             4 A     GTP     0 **** GTP A 301
