@<TRIPOS>MOLECULE
2j3k_NAP_2_ligand
   73    77     1     0     0
SMALL
NO_CHARGES


@<TRIPOS>ATOM
     1 PA          16.3360    11.4580    45.9950 P.3          1 NAP2346   0.0000
     2 O1A         14.9430    11.9020    46.2380 O.co2        1 NAP2346   0.0000
     3 O2A         16.8350    11.5910    44.6050 O.co2        1 NAP2346  -1.0000
     4 O5B         16.5710     9.9200    46.5270 O.3          1 NAP2346   0.0000
     5 C5B         15.3610     9.1900    46.7530 C.3          1 NAP2346   0.0000
     6 C4B         15.5470     7.9160    47.5120 C.3          1 NAP2346   0.0000
     7 O4B         14.5850     7.8920    48.5840 O.3          1 NAP2346   0.0000
     8 C3B         15.2360     6.7060    46.6740 C.3          1 NAP2346   0.0000
     9 O3B         16.3850     6.1900    45.9870 O.3          1 NAP2346   0.0000
    10 C2B         14.6270     5.7420    47.7040 C.3          1 NAP2346   0.0000
    11 O2B         15.2870     4.4380    47.7550 O.3          1 NAP2346   0.0000
    12 C1B         14.7130     6.5130    49.0370 C.3          1 NAP2346   0.0000
    13 N9A         13.7700     6.0660    50.1280 N.pl3        1 NAP2346   0.0000
    14 C8A         12.4750     6.3830    50.1720 C.2          1 NAP2346   0.0000
    15 N7A         11.8210     5.9120    51.2330 N.2          1 NAP2346   0.0000
    16 C5A         12.7730     5.2800    51.8780 C.ar         1 NAP2346   0.0000
    17 C6A         12.6210     4.5950    53.0960 C.ar         1 NAP2346   0.0000
    18 N6A         11.4550     4.4850    53.7280 N.pl3        1 NAP2346   0.0000
    19 N1A         13.7280     4.0060    53.6160 N.ar         1 NAP2346   0.0000
    20 C2A         14.9190     4.0770    53.0010 C.ar         1 NAP2346   0.0000
    21 N3A         15.0540     4.7270    51.8260 N.ar         1 NAP2346   0.0000
    22 C4A         14.0010     5.3460    51.2320 C.ar         1 NAP2346   0.0000
    23 O3          17.1810    12.4390    46.9880 O.3          1 NAP2346   0.0000
    24 PN          18.7350    12.8210    47.2290 P.3          1 NAP2346   0.0000
    25 O1N         19.5970    11.6740    46.8410 O.co2        1 NAP2346   0.0000
    26 O2N         18.9210    14.1610    46.6250 O.co2        1 NAP2346  -1.0000
    27 O5D         18.9010    12.9500    48.8350 O.3          1 NAP2346   0.0000
    28 C5D         18.1270    12.1960    49.8310 C.3          1 NAP2346   0.0000
    29 C4D         18.1580    12.5790    51.3340 C.3          1 NAP2346   0.0000
    30 O4D         19.0780    13.6110    51.7560 O.3          1 NAP2346   0.0000
    31 C3D         16.8810    13.1180    51.9540 C.3          1 NAP2346   0.0000
    32 O3D         16.6700    12.6400    53.2870 O.3          1 NAP2346   0.0000
    33 C2D         16.9720    14.6250    51.8150 C.3          1 NAP2346   0.0000
    34 O2D         16.0880    15.3600    52.6580 O.3          1 NAP2346   0.0000
    35 C1D         18.4410    14.8670    52.0520 C.3          1 NAP2346   0.0000
    36 N1N         18.9350    16.1310    51.4700 N.ar         1 NAP2346   1.0000
    37 C2N         19.6040    16.8960    52.4400 C.ar         1 NAP2346   0.0000
    38 C3N         20.1200    18.1430    52.1500 C.ar         1 NAP2346   0.0000
    39 C7N         20.8920    18.9420    53.2010 C.2          1 NAP2346   0.0000
    40 O7N         20.9637    20.1672    53.1418 O.2          1 NAP2346   0.0000
    41 N7N         21.4606    18.2426    54.1752 N.am         1 NAP2346   0.0000
    42 C4N         19.9450    18.6050    50.8160 C.ar         1 NAP2346   0.0000
    43 C5N         19.3000    17.8450    49.8000 C.ar         1 NAP2346   0.0000
    44 C6N         18.7760    16.5780    50.1190 C.ar         1 NAP2346   0.0000
    45 P2B         14.7110     2.9850    47.7960 P.3          1 NAP2346   0.0000
    46 O1X         14.4550     2.7070    46.3640 O.co2        1 NAP2346   0.0000
    47 O2X         15.9010     2.2540    48.2490 O.co2        1 NAP2346  -1.0000
    48 O3X         13.5100     2.5910    48.5850 O.co2        1 NAP2346  -1.0000
    49 H5B1        14.9570     8.9700    45.8651 H            1 NAP2346   0.0000
    50 H5B2        14.7342     9.7738    47.2690 H            1 NAP2346   0.0000
    51 H4B         16.4767     7.8590    47.8759 H            1 NAP2346   0.0000
    52 H3B         14.5364     6.9475    46.0015 H            1 NAP2346   0.0000
    53 H5          16.5499     5.2467    46.2751 H            1 NAP2346   0.0000
    54 H2B         13.6628     5.6024    47.4784 H            1 NAP2346   0.0000
    55 H1B         15.6437     6.4005    49.3851 H            1 NAP2346   0.0000
    56 H8A         12.0299     6.9313    49.4640 H            1 NAP2346   0.0000
    57 H6A1        11.4003     3.9864    54.5931 H            1 NAP2346   0.0000
    58 H6A2        10.6336     4.9009    53.3378 H            1 NAP2346   0.0000
    59 H2A         15.7168     3.6425    53.4190 H            1 NAP2346   0.0000
    60 H5D1        18.4399    11.2479    49.7740 H            1 NAP2346   0.0000
    61 H5D2        17.1702    12.2490    49.5451 H            1 NAP2346   0.0000
    62 H4D         18.3991    11.7507    51.8397 H            1 NAP2346   0.0000
    63 H3D         16.1143    12.8057    51.3931 H            1 NAP2346   0.0000
    64 H16         17.0763    11.7314    53.3835 H            1 NAP2346   0.0000
    65 H2D         16.7665    14.8630    50.8657 H            1 NAP2346   0.0000
    66 H18         16.5004    16.2423    52.8849 H            1 NAP2346   0.0000
    67 H1D         18.5319    14.9805    53.0414 H            1 NAP2346   0.0000
    68 H2N         19.7090    16.5279    53.3638 H            1 NAP2346   0.0000
    69 H7N1        21.9618    18.7130    54.9015 H            1 NAP2346   0.0000
    70 H7N2        21.3879    17.2453    54.1829 H            1 NAP2346   0.0000
    71 H4N         20.2937    19.5119    50.5795 H            1 NAP2346   0.0000
    72 H5N         19.2201    18.2066    48.8711 H            1 NAP2346   0.0000
    73 H6N         18.3138    16.0157    49.4333 H            1 NAP2346   0.0000
@<TRIPOS>BOND
     1    1    2      ar
     2    1    3      ar
     3    1    4       1
     4    1   23       1
     5    4    5       1
     6    5    6       1
     7    6    7       1
     8    6    8       1
     9    7   12       1
    10    8    9       1
    11    8   10       1
    12   10   11       1
    13   10   12       1
    14   11   45       1
    15   12   13       1
    16   13   14       1
    17   13   22       1
    18   14   15       2
    19   15   16       1
    20   16   17      ar
    21   16   22      ar
    22   17   18       1
    23   17   19      ar
    24   19   20      ar
    25   20   21      ar
    26   21   22      ar
    27   23   24       1
    28   24   25      ar
    29   24   26      ar
    30   24   27       1
    31   27   28       1
    32   28   29       1
    33   29   30       1
    34   29   31       1
    35   30   35       1
    36   31   32       1
    37   31   33       1
    38   33   34       1
    39   33   35       1
    40   35   36       1
    41   36   37      ar
    42   36   44      ar
    43   37   38      ar
    44   38   39       1
    45   38   42      ar
    46   39   40       2
    47   39   41      am
    48   42   43      ar
    49   43   44      ar
    50   45   46      ar
    51   45   47      ar
    52   45   48      ar
    53   43   72       1
    54    5   49       1
    55    5   50       1
    56    6   51       1
    57    8   52       1
    58    9   53       1
    59   10   54       1
    60   12   55       1
    61   14   56       1
    62   18   57       1
    63   18   58       1
    64   20   59       1
    65   44   73       1
    66   28   60       1
    67   28   61       1
    68   29   62       1
    69   31   63       1
    70   32   64       1
    71   33   65       1
    72   34   66       1
    73   35   67       1
    74   37   68       1
    75   41   69       1
    76   41   70       1
    77   42   71       1
@<TRIPOS>SUBSTRUCTURE
     1 NAP2346     1 GROUP             4 B     NAP     0 **** NAP B2346
