@<TRIPOS>MOLECULE
3c4a_FAD_1_ligand
   84    89     1     0     0
SMALL
NO_CHARGES


@<TRIPOS>ATOM
     1 PA          17.9910    46.7240    34.9680 P.3          1 FAD401   0.0000
     2 O1A         18.1840    45.9100    36.1940 O.co2        1 FAD401   0.0000
     3 O2A         16.5840    47.1150    34.6530 O.co2        1 FAD401  -1.0000
     4 O5B         18.8280    48.0700    35.2060 O.3          1 FAD401   0.0000
     5 C5B         18.4140    49.2990    34.6070 C.3          1 FAD401   0.0000
     6 C4B         18.9510    50.4090    35.4310 C.3          1 FAD401   0.0000
     7 O4B         18.6710    51.6880    34.8690 O.3          1 FAD401   0.0000
     8 C3B         18.4250    50.3920    36.8370 C.3          1 FAD401   0.0000
     9 O3B         19.4340    50.6940    37.7950 O.3          1 FAD401   0.0000
    10 C2B         17.4710    51.5400    36.8090 C.3          1 FAD401   0.0000
    11 O2B         17.3850    52.0620    38.1210 O.3          1 FAD401   0.0000
    12 C1B         18.1470    52.5070    35.9090 C.3          1 FAD401   0.0000
    13 N9A         17.2610    53.4420    35.2040 N.pl3        1 FAD401   0.0000
    14 C8A         16.2790    52.9680    34.4530 C.2          1 FAD401   0.0000
    15 N7A         15.7950    54.0050    33.6240 N.2          1 FAD401   0.0000
    16 C5A         16.7220    54.8720    33.7840 C.ar         1 FAD401   0.0000
    17 C6A         16.8240    56.0390    33.0800 C.ar         1 FAD401   0.0000
    18 N6A         16.0790    56.3260    32.1340 N.pl3        1 FAD401   0.0000
    19 N1A         17.9310    56.7630    33.1650 N.ar         1 FAD401   0.0000
    20 C2A         18.7580    56.6580    34.0500 C.ar         1 FAD401   0.0000
    21 N3A         18.8290    55.5030    34.8680 N.ar         1 FAD401   0.0000
    22 C4A         17.7420    54.6270    34.6420 C.ar         1 FAD401   0.0000
    23 N1          17.0780    37.4200    35.0270 N.2          1 FAD401   0.0000
    24 C2          17.8750    36.3150    35.1630 C.2          1 FAD401   0.0000
    25 O2          19.0320    36.3330    34.7610 O.2          1 FAD401   0.0000
    26 N3          17.3330    35.3220    35.9660 N.pl3        1 FAD401   0.0000
    27 C4          16.1100    35.3760    36.6710 C.2          1 FAD401   0.0000
    28 O4          15.8680    34.5080    37.5350 O.2          1 FAD401   0.0000
    29 C4X         15.3160    36.5270    36.2970 C.2          1 FAD401   0.0000
    30 N5          14.0570    36.5300    36.8090 N.2          1 FAD401   0.0000
    31 C5X         13.2290    37.5340    36.4070 C.ar         1 FAD401   0.0000
    32 C6          11.9560    37.4920    36.8790 C.ar         1 FAD401   0.0000
    33 C7          11.0720    38.5280    36.5870 C.ar         1 FAD401   0.0000
    34 C7M          9.6270    38.3720    36.9430 C.3          1 FAD401   0.0000
    35 C8          11.5810    39.6550    35.8940 C.ar         1 FAD401   0.0000
    36 C8M         10.7770    40.7410    35.3770 C.3          1 FAD401   0.0000
    37 C9          12.8650    39.6550    35.4520 C.ar         1 FAD401   0.0000
    38 C9A         13.7090    38.6570    35.7460 C.ar         1 FAD401   0.0000
    39 N10         14.9880    38.6810    35.2440 N.pl3        1 FAD401   0.0000
    40 C10         15.7780    37.5910    35.4970 C.2          1 FAD401   0.0000
    41 C1'         15.3910    39.4840    34.4020 C.3          1 FAD401   0.0000
    42 C2'         15.9220    40.8460    34.5690 C.3          1 FAD401   0.0000
    43 O2'         16.4100    40.9040    35.8820 O.3          1 FAD401   0.0000
    44 C3'         16.7570    41.5830    33.4970 C.3          1 FAD401   0.0000
    45 O3'         17.2390    40.7850    32.4240 O.3          1 FAD401   0.0000
    46 C4'         17.8180    42.5070    34.0440 C.3          1 FAD401   0.0000
    47 O4'         18.6660    41.8680    34.9640 O.3          1 FAD401   0.0000
    48 C5'         18.6480    43.1660    32.9650 C.3          1 FAD401   0.0000
    49 O5'         19.7340    43.8960    33.5240 O.3          1 FAD401   0.0000
    50 P           19.9540    45.4150    33.2220 P.3          1 FAD401   0.0000
    51 O1P         21.0370    45.9390    34.0730 O.co2        1 FAD401   0.0000
    52 O2P         20.0840    45.4780    31.7470 O.co2        1 FAD401  -1.0000
    53 O3P         18.6000    46.0510    33.6820 O.3          1 FAD401   0.0000
    54 H5B1        17.4154    49.3459    34.5824 H            1 FAD401   0.0000
    55 H5B2        18.7737    49.3617    33.6760 H            1 FAD401   0.0000
    56 H4B         19.9446    50.3048    35.4747 H            1 FAD401   0.0000
    57 H3B         17.9613    49.5314    37.0476 H            1 FAD401   0.0000
    58 H5          19.4600    51.6813    37.9517 H            1 FAD401   0.0000
    59 H2B         16.5747    51.2695    36.4575 H            1 FAD401   0.0000
    60 H7          18.0777    52.7729    38.2430 H            1 FAD401   0.0000
    61 H1B         18.8779    52.9941    36.3871 H            1 FAD401   0.0000
    62 H8A         15.9357    52.0289    34.4697 H            1 FAD401   0.0000
    63 H6A1        16.1956    57.1940    31.6513 H            1 FAD401   0.0000
    64 H6A2        15.3606    55.6899    31.8525 H            1 FAD401   0.0000
    65 H2A         19.4042    57.4053    34.2045 H            1 FAD401   0.0000
    66 H13         17.8639    34.4793    36.0552 H            1 FAD401   0.0000
    67 H14         11.6538    36.7181    37.4355 H            1 FAD401   0.0000
    68 H7M1         9.1262    39.1940    36.6717 H            1 FAD401   0.0000
    69 H7M2         9.2497    37.5788    36.4650 H            1 FAD401   0.0000
    70 H7M3         9.5394    38.2390    37.9302 H            1 FAD401   0.0000
    71 H8M1        11.3698    41.4115    34.9309 H            1 FAD401   0.0000
    72 H8M2        10.1203    40.3829    34.7133 H            1 FAD401   0.0000
    73 H8M3        10.2852    41.1792    36.1294 H            1 FAD401   0.0000
    74 H21         13.1885    40.4187    34.8933 H            1 FAD401   0.0000
    75 H1'1        14.6133    39.5999    33.7842 H            1 FAD401   0.0000
    76 H1'2        16.1227    38.9937    33.9285 H            1 FAD401   0.0000
    77 H2'         15.0913    41.4005    34.6192 H            1 FAD401   0.0000
    78 H25         17.3879    41.1124    35.8653 H            1 FAD401   0.0000
    79 H3'         16.1008    42.2000    33.0626 H            1 FAD401   0.0000
    80 H27         17.3145    41.3456    31.5994 H            1 FAD401   0.0000
    81 H4'         17.3455    43.2369    34.5380 H            1 FAD401   0.0000
    82 H29         19.1265    41.1016    34.5162 H            1 FAD401   0.0000
    83 H5'1        18.0679    43.7923    32.4442 H            1 FAD401   0.0000
    84 H5'2        19.0089    42.4607    32.3548 H            1 FAD401   0.0000
@<TRIPOS>BOND
     1    1    2      ar
     2    1    3      ar
     3    1    4       1
     4    1   53       1
     5    4    5       1
     6    5    6       1
     7    6    7       1
     8    6    8       1
     9    7   12       1
    10    8    9       1
    11    8   10       1
    12   10   11       1
    13   10   12       1
    14   12   13       1
    15   13   14       1
    16   13   22       1
    17   14   15       2
    18   15   16       1
    19   16   17      ar
    20   16   22      ar
    21   17   18       1
    22   17   19      ar
    23   19   20      ar
    24   20   21      ar
    25   21   22      ar
    26   23   24       1
    27   23   40       2
    28   24   25       2
    29   24   26       1
    30   26   27       1
    31   27   28       2
    32   27   29       1
    33   29   30       2
    34   29   40       1
    35   30   31       1
    36   31   32      ar
    37   31   38      ar
    38   32   33      ar
    39   33   34       1
    40   33   35      ar
    41   35   36       1
    42   35   37      ar
    43   37   38      ar
    44   38   39       1
    45   39   40       1
    46   39   41       1
    47   41   42       1
    48   42   43       1
    49   42   44       1
    50   44   45       1
    51   44   46       1
    52   46   47       1
    53   46   48       1
    54   48   49       1
    55   49   50       1
    56   50   51      ar
    57   50   52      ar
    58   50   53       1
    59   48   84       1
    60    5   54       1
    61    5   55       1
    62    6   56       1
    63    8   57       1
    64    9   58       1
    65   10   59       1
    66   11   60       1
    67   12   61       1
    68   14   62       1
    69   18   63       1
    70   18   64       1
    71   20   65       1
    72   26   66       1
    73   32   67       1
    74   34   68       1
    75   34   69       1
    76   34   70       1
    77   36   71       1
    78   36   72       1
    79   36   73       1
    80   37   74       1
    81   41   75       1
    82   41   76       1
    83   42   77       1
    84   43   78       1
    85   44   79       1
    86   45   80       1
    87   46   81       1
    88   47   82       1
    89   48   83       1
@<TRIPOS>SUBSTRUCTURE
     1 FAD401      1 GROUP             4 A     FAD     0 **** FAD A 401
