@<TRIPOS>MOLECULE
3zmd_SAL_1_ligand
   15    15     1     0     0
SMALL
NO_CHARGES


@<TRIPOS>ATOM
     1 C1'         17.0460    48.6000    53.1770 C.2          1 SAL201   0.0000
     2 O1'         17.4150    49.4210    52.3240 O.co2        1 SAL201   0.0000
     3 O2'         17.8650    48.2440    54.0230 O.co2        1 SAL201  -1.0000
     4 C1          15.6410    48.0370    53.1560 C.ar         1 SAL201   0.0000
     5 C2          14.7670    48.2220    51.9670 C.ar         1 SAL201   0.0000
     6 C3          13.4530    47.7040    51.9640 C.ar         1 SAL201   0.0000
     7 C4          12.9560    47.0050    53.0610 C.ar         1 SAL201   0.0000
     8 C5          13.7700    46.8310    54.1840 C.ar         1 SAL201   0.0000
     9 C6          15.0870    47.3280    54.2310 C.ar         1 SAL201   0.0000
    10 O2          15.2390    48.9020    50.8900 O.3          1 SAL201   0.0000
    11 H1          12.8711    47.8412    51.1624 H            1 SAL201   0.0000
    12 H2          12.0283    46.6321    53.0456 H            1 SAL201   0.0000
    13 H3          13.4072    46.3400    54.9760 H            1 SAL201   0.0000
    14 H4          15.6394    47.1716    55.0498 H            1 SAL201   0.0000
    15 H5          16.1674    49.2735    50.9008 H            1 SAL201   0.0000
@<TRIPOS>BOND
     1    1    2      ar
     2    1    3      ar
     3    1    4       1
     4    4    5      ar
     5    4    9      ar
     6    5    6      ar
     7    5   10       1
     8    6    7      ar
     9    7    8      ar
    10    8    9      ar
    11   10   15       1
    12    6   11       1
    13    7   12       1
    14    8   13       1
    15    9   14       1
@<TRIPOS>SUBSTRUCTURE
     1 SAL201      1 GROUP             4 A     SAL     0 **** SAL A 201
