@<TRIPOS>MOLECULE
1ho5_ADN_2_ligand
   32    34     1     0     0
SMALL
NO_CHARGES


@<TRIPOS>ATOM
     1 O5'          6.3010    11.1060    32.7540 O.3          1 ADN2604   0.0000
     2 C5'          5.8130    12.1630    33.5770 C.3          1 ADN2604   0.0000
     3 C4'          5.7230    11.7060    35.0130 C.3          1 ADN2604   0.0000
     4 O4'          7.0520    11.3890    35.5000 O.3          1 ADN2604   0.0000
     5 C3'          5.2110    12.7570    35.9800 C.3          1 ADN2604   0.0000
     6 O3'          3.7880    12.7920    35.9800 O.3          1 ADN2604   0.0000
     7 C2'          5.8070    12.3000    37.3130 C.3          1 ADN2604   0.0000
     8 O2'          5.0830    11.2890    37.9830 O.3          1 ADN2604   0.0000
     9 C1'          7.1580    11.7350    36.8700 C.3          1 ADN2604   0.0000
    10 N9           8.2700    12.6720    37.0110 N.pl3        1 ADN2604   0.0000
    11 C8           8.7140    13.5910    36.0930 C.2          1 ADN2604   0.0000
    12 N7           9.7670    14.2600    36.4850 N.2          1 ADN2604   0.0000
    13 C5          10.0290    13.7590    37.7530 C.ar         1 ADN2604   0.0000
    14 C6          11.0340    14.0410    38.6970 C.ar         1 ADN2604   0.0000
    15 N6          12.0080    14.9310    38.4990 N.pl3        1 ADN2604   0.0000
    16 N1          11.0080    13.3580    39.8660 N.ar         1 ADN2604   0.0000
    17 C2          10.0430    12.4530    40.0570 C.ar         1 ADN2604   0.0000
    18 N3           9.0510    12.0930    39.2450 N.ar         1 ADN2604   0.0000
    19 C4           9.1040    12.7910    38.0950 C.ar         1 ADN2604   0.0000
    20 H5'          7.1512    11.3927    32.3125 H            1 ADN2604   0.0000
    21 H5'1         4.9049    12.4364    33.2598 H            1 ADN2604   0.0000
    22 H5'2         6.4359    12.9430    33.5169 H            1 ADN2604   0.0000
    23 H4'          5.1447    10.8921    35.0683 H            1 ADN2604   0.0000
    24 H3'          5.5750    13.6550    35.7329 H            1 ADN2604   0.0000
    25 H6           3.4717    13.4899    36.6226 H            1 ADN2604   0.0000
    26 H2'          5.9429    13.0851    37.9173 H            1 ADN2604   0.0000
    27 H8           4.4096    11.7088    38.5915 H            1 ADN2604   0.0000
    28 H1'          7.3566    10.9108    37.4003 H            1 ADN2604   0.0000
    29 H10          8.2733    13.7354    35.2071 H            1 ADN2604   0.0000
    30 H11         12.6944    15.0873    39.2092 H            1 ADN2604   0.0000
    31 H12         12.0516    15.4418    37.6404 H            1 ADN2604   0.0000
    32 H13         10.0700    11.9778    40.9365 H            1 ADN2604   0.0000
@<TRIPOS>BOND
     1    1    2       1
     2    2    3       1
     3    3    4       1
     4    3    5       1
     5    4    9       1
     6    5    6       1
     7    5    7       1
     8    7    8       1
     9    7    9       1
    10    9   10       1
    11   10   11       1
    12   10   19       1
    13   11   12       2
    14   12   13       1
    15   13   14      ar
    16   13   19      ar
    17   14   15       1
    18   14   16      ar
    19   16   17      ar
    20   17   18      ar
    21   18   19      ar
    22    1   20       1
    23    2   21       1
    24    2   22       1
    25    3   23       1
    26    5   24       1
    27    6   25       1
    28    7   26       1
    29    8   27       1
    30    9   28       1
    31   11   29       1
    32   15   30       1
    33   15   31       1
    34   17   32       1
@<TRIPOS>SUBSTRUCTURE
     1 ADN2604     1 GROUP             4 B     ADN     0 **** ADN B2604
