@<TRIPOS>MOLECULE
1t5z_DHT_1_ligand
   51    54     1     0     0
SMALL
NO_CHARGES


@<TRIPOS>ATOM
     1 C1          -0.1060    61.1110     3.9130 C.3          1 DHT931   0.0000
     2 C2           0.6660    59.8380     4.3390 C.3          1 DHT931   0.0000
     3 C3           2.1510    60.0190     3.8560 C.2          1 DHT931   0.0000
     4 O3           2.6910    59.0460     3.2880 O.2          1 DHT931   0.0000
     5 C4           2.8430    61.3030     4.0910 C.3          1 DHT931   0.0000
     6 C5           2.0070    62.5220     3.5830 C.3          1 DHT931   0.0000
     7 C6           2.7080    63.8990     3.8520 C.3          1 DHT931   0.0000
     8 C7           1.8330    65.0470     3.2920 C.3          1 DHT931   0.0000
     9 C8           0.4120    65.0800     3.9470 C.3          1 DHT931   0.0000
    10 C9          -0.2840    63.6970     3.7010 C.3          1 DHT931   0.0000
    11 C10          0.5520    62.4750     4.2550 C.3          1 DHT931   0.0000
    12 C11         -1.7170    63.7520     4.3250 C.3          1 DHT931   0.0000
    13 C12         -2.6190    64.9040     3.8900 C.3          1 DHT931   0.0000
    14 C13         -1.9110    66.2770     3.9940 C.3          1 DHT931   0.0000
    15 C14         -0.4710    66.1820     3.3600 C.3          1 DHT931   0.0000
    16 C15          0.0280    67.6260     3.4860 C.3          1 DHT931   0.0000
    17 C16         -1.2030    68.4120     2.9960 C.3          1 DHT931   0.0000
    18 C17         -2.4070    67.4220     3.1350 C.3          1 DHT931   0.0000
    19 O17         -3.5320    68.1210     3.7030 O.3          1 DHT931   0.0000
    20 C18         -1.8420    66.7020     5.5140 C.3          1 DHT931   0.0000
    21 C19          0.6750    62.6290     5.8280 C.3          1 DHT931   0.0000
    22 H1          -1.0005    61.0861     4.3594 H            1 DHT931   0.0000
    23 H2          -0.2273    61.0737     2.9211 H            1 DHT931   0.0000
    24 H3           0.2610    59.0308     3.9096 H            1 DHT931   0.0000
    25 H4           0.6382    59.7359     5.3334 H            1 DHT931   0.0000
    26 H5           3.7195    61.2899     3.6097 H            1 DHT931   0.0000
    27 H6           3.0032    61.4082     5.0725 H            1 DHT931   0.0000
    28 H7           1.8917    62.4244     2.5945 H            1 DHT931   0.0000
    29 H8           3.6008    63.9113     3.4017 H            1 DHT931   0.0000
    30 H9           2.8296    64.0235     4.8367 H            1 DHT931   0.0000
    31 H10          1.7300    64.9216     2.3052 H            1 DHT931   0.0000
    32 H11          2.2907    65.9178     3.4714 H            1 DHT931   0.0000
    33 H12          0.5086    65.2274     4.9313 H            1 DHT931   0.0000
    34 H13         -0.3846    63.5764     2.7134 H            1 DHT931   0.0000
    35 H14         -1.6116    63.8098     5.3178 H            1 DHT931   0.0000
    36 H15         -2.1820    62.8989     4.0882 H            1 DHT931   0.0000
    37 H16         -3.4302    64.9155     4.4746 H            1 DHT931   0.0000
    38 H17         -2.8946    64.7555     2.9403 H            1 DHT931   0.0000
    39 H18         -0.5846    65.9880     2.3856 H            1 DHT931   0.0000
    40 H19          0.8238    67.7909     2.9033 H            1 DHT931   0.0000
    41 H20          0.2552    67.8539     4.4328 H            1 DHT931   0.0000
    42 H21         -1.0852    68.6885     2.0422 H            1 DHT931   0.0000
    43 H22         -1.3491    69.2230     3.5626 H            1 DHT931   0.0000
    44 H23         -2.6555    67.0741     2.2310 H            1 DHT931   0.0000
    45 H24         -4.2940    67.4846     3.8227 H            1 DHT931   0.0000
    46 H25         -1.3859    67.5885     5.5919 H            1 DHT931   0.0000
    47 H26         -2.7687    66.7703     5.8834 H            1 DHT931   0.0000
    48 H27         -1.3276    66.0162     6.0289 H            1 DHT931   0.0000
    49 H28          1.0991    63.5083     6.0447 H            1 DHT931   0.0000
    50 H29         -0.2356    62.5878     6.2392 H            1 DHT931   0.0000
    51 H30          1.2391    61.8881     6.1924 H            1 DHT931   0.0000
@<TRIPOS>BOND
     1    1    2       1
     2    1   11       1
     3    2    3       1
     4    3    4       2
     5    3    5       1
     6    5    6       1
     7    6    7       1
     8    6   11       1
     9    7    8       1
    10    8    9       1
    11    9   10       1
    12    9   15       1
    13   10   11       1
    14   10   12       1
    15   11   21       1
    16   12   13       1
    17   13   14       1
    18   14   15       1
    19   14   18       1
    20   14   20       1
    21   15   16       1
    22   16   17       1
    23   17   18       1
    24   18   19       1
    25    1   22       1
    26    1   23       1
    27    2   24       1
    28    2   25       1
    29    5   26       1
    30    5   27       1
    31    6   28       1
    32    7   29       1
    33    7   30       1
    34    8   31       1
    35    8   32       1
    36    9   33       1
    37   10   34       1
    38   12   35       1
    39   12   36       1
    40   13   37       1
    41   13   38       1
    42   15   39       1
    43   16   40       1
    44   16   41       1
    45   17   42       1
    46   17   43       1
    47   18   44       1
    48   19   45       1
    49   20   46       1
    50   20   47       1
    51   20   48       1
    52   21   49       1
    53   21   50       1
    54   21   51       1
@<TRIPOS>SUBSTRUCTURE
     1 DHT931      1 GROUP             4 A     DHT     0 **** DHT A 931
