@<TRIPOS>MOLECULE
5jqh_CAU_1_ligand
   45    47     1     0     0
SMALL
USER_CHARGES


@<TRIPOS>ATOM
     1 O17          7.5750   -29.9060   -59.3260 O.3          1 CAU1401   0.0000
     2 C16          7.1250   -31.0070   -60.1220 C.3          1 CAU1401   0.0000
     3 C18          8.0830   -31.2180   -61.2980 C.3          1 CAU1401   0.0000
     4 N19          8.2170   -29.9920   -62.0990 N.4          1 CAU1401   1.0000
     5 C20          8.8150   -30.3030   -63.4060 C.3          1 CAU1401   0.0000
     6 C21         10.1980   -30.9400   -63.2490 C.3          1 CAU1401   0.0000
     7 C22          8.9330   -29.0410   -64.2620 C.3          1 CAU1401   0.0000
     8 C15          7.0780   -32.2780   -59.2700 C.3          1 CAU1401   0.0000
     9 O14          6.6440   -33.3730   -60.0840 O.3          1 CAU1401   0.0000
    10 C13          6.4910   -34.5300   -59.3750 C.ar         1 CAU1401   0.0000
    11 C12          6.8580   -34.6200   -58.0380 C.ar         1 CAU1401   0.0000
    12 C11          6.6720   -35.8280   -57.3870 C.ar         1 CAU1401   0.0000
    13 C10          6.1290   -36.8840   -58.1070 C.ar         1 CAU1401   0.0000
    14 C8           5.7960   -36.7390   -59.3880 C.ar         1 CAU1401   0.0000
    15 C9           5.9710   -35.5780   -60.0260 C.ar         1 CAU1401   0.0000
    16 N7           5.2710   -37.6050   -60.2470 N.pl3        1 CAU1401   0.0000
    17 C3           5.1150   -36.9970   -61.4170 C.ar         1 CAU1401   0.0000
    18 C4           5.5480   -35.7410   -61.2860 C.ar         1 CAU1401   0.0000
    19 C2           4.6320   -37.4470   -62.5750 C.ar         1 CAU1401   0.0000
    20 C1           4.5630   -36.6190   -63.6860 C.ar         1 CAU1401   0.0000
    21 C6           5.0100   -35.3140   -63.5580 C.ar         1 CAU1401   0.0000
    22 C5           5.5030   -34.9050   -62.3260 C.ar         1 CAU1401   0.0000
    23 H1           8.4916   -30.1000   -58.9765 H            1 CAU1401   0.0000
    24 H2           6.2095   -30.8095   -60.4724 H            1 CAU1401   0.0000
    25 H3           7.7298   -31.9509   -61.8794 H            1 CAU1401   0.0000
    26 H4           8.9819   -31.4769   -60.9445 H            1 CAU1401   0.0000
    27 H5           8.8026   -29.3426   -61.6138 H            1 CAU1401   0.0000
    28 H6           8.2198   -30.9520   -63.8798 H            1 CAU1401   0.0000
    29 H7          10.5777   -31.1394   -64.1524 H            1 CAU1401   0.0000
    30 H8          10.8032   -30.3078   -62.7652 H            1 CAU1401   0.0000
    31 H9          10.1166   -31.7890   -62.7269 H            1 CAU1401   0.0000
    32 H10          9.3411   -29.2739   -65.1447 H            1 CAU1401   0.0000
    33 H11          8.0239   -28.6508   -64.4077 H            1 CAU1401   0.0000
    34 H12          9.5112   -28.3731   -63.7933 H            1 CAU1401   0.0000
    35 H13          6.4378   -32.1497   -58.5125 H            1 CAU1401   0.0000
    36 H14          7.9895   -32.4715   -58.9070 H            1 CAU1401   0.0000
    37 H15          7.2463   -33.8331   -57.5584 H            1 CAU1401   0.0000
    38 H16          6.9218   -35.9369   -56.4249 H            1 CAU1401   0.0000
    39 H17          5.9861   -37.7656   -57.6572 H            1 CAU1401   0.0000
    40 H18          5.0331   -38.5553   -60.0464 H            1 CAU1401   0.0000
    41 H19          4.3155   -38.3931   -62.6438 H            1 CAU1401   0.0000
    42 H20          4.2006   -36.9549   -64.5554 H            1 CAU1401   0.0000
    43 H21          4.9784   -34.6828   -64.3329 H            1 CAU1401   0.0000
    44 H22          5.8305   -33.9666   -62.2156 H            1 CAU1401   0.0000
    45 H23          7.3131   -29.5871   -62.2371 H            1 CAU1401   0.0000
@<TRIPOS>BOND
     1    1    2       1
     2    2    3       1
     3    2    8       1
     4    3    4       1
     5    4    5       1
     6    5    6       1
     7    5    7       1
     8    8    9       1
     9    9   10       1
    10   10   11      ar
    11   10   15      ar
    12   11   12      ar
    13   12   13      ar
    14   13   14      ar
    15   14   15      ar
    16   14   16       1
    17   15   18       1
    18   16   17       1
    19   17   18      ar
    20   17   19      ar
    21   18   22      ar
    22   19   20      ar
    23   20   21      ar
    24   21   22      ar
    25    1   23       1
    26    2   24       1
    27    3   25       1
    28    3   26       1
    29    4   27       1
    30    5   28       1
    31    6   29       1
    32    6   30       1
    33    6   31       1
    34    7   32       1
    35    7   33       1
    36    7   34       1
    37    8   35       1
    38    8   36       1
    39   11   37       1
    40   12   38       1
    41   13   39       1
    42   16   40       1
    43   19   41       1
    44   20   42       1
    45   21   43       1
    46   22   44       1
    47    4   45       1
@<TRIPOS>SUBSTRUCTURE
     1 CAU1401     1 GROUP             4 A     CAU     0 **** CAU A1401
