@<TRIPOS>MOLECULE
4oau_ADP_1_ligand
   39    41     1     0     0
SMALL
NO_CHARGES


@<TRIPOS>ATOM
     1 PB           9.9860   -38.2700    18.0400 P.3          1 ADP801   0.0000
     2 O1B         10.1120   -39.6700    18.5820 O.co2        1 ADP801   0.0000
     3 O2B         10.1390   -37.1910    19.0780 O.co2        1 ADP801  -1.0000
     4 O3B         10.7770   -38.0430    16.7710 O.co2        1 ADP801  -1.0000
     5 PA           7.5700   -39.3570    17.0040 P.3          1 ADP801   0.0000
     6 O1A          7.2680   -39.1190    15.5470 O.co2        1 ADP801   0.0000
     7 O2A          8.2170   -40.6560    17.4250 O.co2        1 ADP801  -1.0000
     8 O3A          8.4500   -38.1220    17.5600 O.3          1 ADP801   0.0000
     9 O5'          6.2240   -39.1860    17.8690 O.3          1 ADP801   0.0000
    10 C5'          6.2760   -39.4720    19.2660 C.3          1 ADP801   0.0000
    11 C4'          5.0690   -40.2830    19.7140 C.3          1 ADP801   0.0000
    12 O4'          3.8520   -39.7150    19.2280 O.3          1 ADP801   0.0000
    13 C3'          5.0980   -41.7070    19.1840 C.3          1 ADP801   0.0000
    14 O3'          5.8030   -42.5740    20.0750 O.3          1 ADP801   0.0000
    15 C2'          3.6310   -42.0650    19.1110 C.3          1 ADP801   0.0000
    16 O2'          3.2220   -42.5620    20.3860 O.3          1 ADP801   0.0000
    17 C1'          2.9180   -40.7450    18.8930 C.3          1 ADP801   0.0000
    18 N9           2.5300   -40.6250    17.4640 N.pl3        1 ADP801   0.0000
    19 C8           3.2710   -40.0420    16.5020 C.2          1 ADP801   0.0000
    20 N7           2.6420   -40.0930    15.2990 N.2          1 ADP801   0.0000
    21 C5           1.4660   -40.7220    15.4860 C.ar         1 ADP801   0.0000
    22 C6           0.3140   -41.1090    14.6360 C.ar         1 ADP801   0.0000
    23 N6           0.2980   -40.8290    13.3100 N.pl3        1 ADP801   0.0000
    24 N1          -0.7160   -41.7560    15.2250 N.ar         1 ADP801   0.0000
    25 C2          -0.7100   -42.0420    16.5400 C.ar         1 ADP801   0.0000
    26 N3           0.3000   -41.7230    17.3690 N.ar         1 ADP801   0.0000
    27 C4           1.3980   -41.0740    16.9130 C.ar         1 ADP801   0.0000
    28 H5'1         6.2954   -38.6106    19.7736 H            1 ADP801   0.0000
    29 H5'2         7.1075   -39.9923    19.4605 H            1 ADP801   0.0000
    30 H4'          5.0431   -40.3063    20.7134 H            1 ADP801   0.0000
    31 H3'          5.5096   -41.7325    18.2730 H            1 ADP801   0.0000
    32 H5           6.7717   -42.5903    19.8273 H            1 ADP801   0.0000
    33 H2'          3.4417   -42.7176    18.3773 H            1 ADP801   0.0000
    34 H7           3.9972   -43.0066    20.8348 H            1 ADP801   0.0000
    35 H1'          2.1098   -40.6855    19.4789 H            1 ADP801   0.0000
    36 H9           4.1675   -39.6258    16.6537 H            1 ADP801   0.0000
    37 H10         -0.4871   -41.0973    12.7518 H            1 ADP801   0.0000
    38 H11          1.0713   -40.3541    12.8899 H            1 ADP801   0.0000
    39 H12         -1.5014   -42.5188    16.9225 H            1 ADP801   0.0000
@<TRIPOS>BOND
     1    1    2      ar
     2    1    3      ar
     3    1    4      ar
     4    1    8       1
     5    5    6      ar
     6    5    7      ar
     7    5    8       1
     8    5    9       1
     9    9   10       1
    10   10   11       1
    11   11   12       1
    12   11   13       1
    13   12   17       1
    14   13   14       1
    15   13   15       1
    16   15   16       1
    17   15   17       1
    18   17   18       1
    19   18   19       1
    20   18   27       1
    21   19   20       2
    22   20   21       1
    23   21   22      ar
    24   21   27      ar
    25   22   23       1
    26   22   24      ar
    27   24   25      ar
    28   25   26      ar
    29   26   27      ar
    30   25   39       1
    31   23   38       1
    32   23   37       1
    33   10   28       1
    34   10   29       1
    35   11   30       1
    36   13   31       1
    37   14   32       1
    38   15   33       1
    39   16   34       1
    40   17   35       1
    41   19   36       1
@<TRIPOS>SUBSTRUCTURE
     1 ADP801      1 GROUP             4 C     ADP     0 **** ADP C 801
