@<TRIPOS>MOLECULE
3abi_NAD_1_ligand
   70    74     1     0     0
SMALL
NO_CHARGES


@<TRIPOS>ATOM
     1 PA           0.2690    15.3880   128.0090 P.3          1 NAD1001   0.0000
     2 O1A         -0.1060    16.6100   128.8350 O.co2        1 NAD1001   0.0000
     3 O2A          0.6200    15.2830   126.4800 O.co2        1 NAD1001  -1.0000
     4 O5B          1.5140    14.7890   128.6900 O.3          1 NAD1001   0.0000
     5 C5B          1.7080    13.4880   128.1200 C.3          1 NAD1001   0.0000
     6 C4B          2.7720    13.0770   129.3380 C.3          1 NAD1001   0.0000
     7 O4B          3.3600    11.8010   128.8320 O.3          1 NAD1001   0.0000
     8 C3B          4.0930    14.1300   129.0770 C.3          1 NAD1001   0.0000
     9 O3B          4.7760    14.4330   130.3490 O.3          1 NAD1001   0.0000
    10 C2B          5.0490    13.3400   128.2420 C.3          1 NAD1001   0.0000
    11 O2B          6.4720    13.5500   128.5880 O.3          1 NAD1001   0.0000
    12 C1B          4.8430    12.0000   128.9980 C.3          1 NAD1001   0.0000
    13 N9A          5.5670    11.2370   127.8600 N.pl3        1 NAD1001   0.0000
    14 C8A          5.4000    11.3250   126.3440 C.2          1 NAD1001   0.0000
    15 N7A          6.1040    10.1590   125.7420 N.2          1 NAD1001   0.0000
    16 C5A          6.7130     9.5670   126.7790 C.ar         1 NAD1001   0.0000
    17 C6A          7.6140     8.5280   126.8050 C.ar         1 NAD1001   0.0000
    18 N6A          8.1400     7.8530   125.6950 N.pl3        1 NAD1001   0.0000
    19 N1A          8.0810     7.9850   127.9950 N.ar         1 NAD1001   0.0000
    20 C2A          7.7270     8.4840   129.3160 C.ar         1 NAD1001   0.0000
    21 N3A          6.8800     9.6580   129.1980 N.ar         1 NAD1001   0.0000
    22 C4A          6.3840    10.1530   128.0070 C.ar         1 NAD1001   0.0000
    23 O3          -1.0120    14.2810   128.2820 O.3          1 NAD1001   0.0000
    24 PN          -2.0970    14.6740   129.2790 P.3          1 NAD1001   0.0000
    25 O1N         -2.8710    15.7490   128.7380 O.co2        1 NAD1001   0.0000
    26 O2N         -1.7000    14.5460   130.7570 O.co2        1 NAD1001  -1.0000
    27 O5D         -3.0830    13.1600   129.2010 O.3          1 NAD1001   0.0000
    28 C5D         -2.3450    12.0370   128.8550 C.3          1 NAD1001   0.0000
    29 C4D         -3.3030    10.9900   128.2520 C.3          1 NAD1001   0.0000
    30 O4D         -4.6680    11.2890   128.8170 O.3          1 NAD1001   0.0000
    31 C3D         -3.4220    11.3870   126.8560 C.3          1 NAD1001   0.0000
    32 O3D         -3.6600    10.1280   126.1400 O.3          1 NAD1001   0.0000
    33 C2D         -4.7000    12.1220   126.7920 C.3          1 NAD1001   0.0000
    34 O2D         -5.2120    11.9080   125.4390 O.3          1 NAD1001   0.0000
    35 C1D         -5.6040    11.3770   127.7440 C.3          1 NAD1001   0.0000
    36 N1N         -6.6120    12.3680   128.1560 N.ar         1 NAD1001   1.0000
    37 C2N         -7.9090    11.8470   128.0760 C.ar         1 NAD1001   0.0000
    38 C3N         -9.0130    12.6100   128.3850 C.ar         1 NAD1001   0.0000
    39 C7N        -10.4240    12.0470   128.5430 C.2          1 NAD1001   0.0000
    40 O7N        -11.1970    13.1010   128.9500 O.2          1 NAD1001   0.0000
    41 N7N        -10.7270    10.7790   128.4930 N.am         1 NAD1001   0.0000
    42 C4N         -8.8160    13.9350   128.8240 C.ar         1 NAD1001   0.0000
    43 C5N         -7.5750    14.5290   128.8530 C.ar         1 NAD1001   0.0000
    44 C6N         -6.4450    13.7100   128.5060 C.ar         1 NAD1001   0.0000
    45 H5B1         2.1218    13.5031   127.2098 H            1 NAD1001   0.0000
    46 H5B2         0.8800    12.9277   128.1005 H            1 NAD1001   0.0000
    47 H4B          2.3980    13.0560   130.2652 H            1 NAD1001   0.0000
    48 H3B          3.8057    14.9660   128.6095 H            1 NAD1001   0.0000
    49 H5           5.1141    13.5845   130.7562 H            1 NAD1001   0.0000
    50 H2B          4.8448    13.3159   127.2634 H            1 NAD1001   0.0000
    51 H7           6.6261    13.2858   129.5401 H            1 NAD1001   0.0000
    52 H1B          5.2209    11.9249   129.9208 H            1 NAD1001   0.0000
    53 H8A          4.9065    12.0377   125.8454 H            1 NAD1001   0.0000
    54 H6A1         8.7928     7.1070   125.8267 H            1 NAD1001   0.0000
    55 H6A2         7.8625     8.1174   124.7714 H            1 NAD1001   0.0000
    56 H2A          8.0241     8.0772   130.1799 H            1 NAD1001   0.0000
    57 H5D1        -1.9022    11.6603   129.6686 H            1 NAD1001   0.0000
    58 H5D2        -1.6488    12.2850   128.1813 H            1 NAD1001   0.0000
    59 H4D         -3.0066    10.0439   128.3825 H            1 NAD1001   0.0000
    60 H3D         -2.6385    11.9059   126.5140 H            1 NAD1001   0.0000
    61 H17         -2.8889     9.5090   126.2888 H            1 NAD1001   0.0000
    62 H2D         -4.6042    13.0901   127.0234 H            1 NAD1001   0.0000
    63 H19         -4.4458    11.7881   124.8077 H            1 NAD1001   0.0000
    64 H1D         -5.9634    10.5060   127.4091 H            1 NAD1001   0.0000
    65 H2N         -8.0368    10.8981   127.7876 H            1 NAD1001   0.0000
    66 H7N1       -11.6768    10.4871   128.6057 H            1 NAD1001   0.0000
    67 H7N2       -10.0095    10.0990   128.3420 H            1 NAD1001   0.0000
    68 H4N         -9.6090    14.4640   129.1262 H            1 NAD1001   0.0000
    69 H5N         -7.4636    15.4903   129.1049 H            1 NAD1001   0.0000
    70 H6N         -5.5271    14.1066   128.5154 H            1 NAD1001   0.0000
@<TRIPOS>BOND
     1    1    2      ar
     2    1    3      ar
     3    1    4       1
     4    1   23       1
     5    4    5       1
     6    5    6       1
     7    6    7       1
     8    6    8       1
     9    7   12       1
    10    8    9       1
    11    8   10       1
    12   10   11       1
    13   10   12       1
    14   12   13       1
    15   13   14       1
    16   13   22       1
    17   14   15       2
    18   15   16       1
    19   16   17      ar
    20   16   22      ar
    21   17   18       1
    22   17   19      ar
    23   19   20      ar
    24   20   21      ar
    25   21   22      ar
    26   23   24       1
    27   24   25      ar
    28   24   26      ar
    29   24   27       1
    30   27   28       1
    31   28   29       1
    32   29   30       1
    33   29   31       1
    34   30   35       1
    35   31   32       1
    36   31   33       1
    37   33   34       1
    38   33   35       1
    39   35   36       1
    40   36   37      ar
    41   36   44      ar
    42   37   38      ar
    43   38   39       1
    44   38   42      ar
    45   39   40       2
    46   39   41      am
    47   42   43      ar
    48   43   44      ar
    49   44   70       1
    50    5   45       1
    51    5   46       1
    52    6   47       1
    53    8   48       1
    54    9   49       1
    55   10   50       1
    56   11   51       1
    57   12   52       1
    58   14   53       1
    59   18   54       1
    60   18   55       1
    61   20   56       1
    62   43   69       1
    63   28   57       1
    64   28   58       1
    65   29   59       1
    66   31   60       1
    67   32   61       1
    68   33   62       1
    69   34   63       1
    70   35   64       1
    71   37   65       1
    72   41   66       1
    73   41   67       1
    74   42   68       1
@<TRIPOS>SUBSTRUCTURE
     1 NAD1001     1 GROUP             4 A     NAD     0 **** NAD A1001
