@<TRIPOS>MOLECULE
4zwm_PLP_1_ligand
   26    26     1     0     0
SMALL
NO_CHARGES


@<TRIPOS>ATOM
     1 N1          24.7110     0.3730    59.1170 N.ar         1 PLP501   1.0000
     2 C2          24.6140     0.1260    57.7800 C.ar         1 PLP501   0.0000
     3 C2A         23.3560    -0.5180    57.2370 C.3          1 PLP501   0.0000
     4 C3          25.7310     0.4960    56.8720 C.ar         1 PLP501   0.0000
     5 O3          25.6950     0.2670    55.5270 O.3          1 PLP501   0.0000
     6 C4          26.9060     1.1260    57.4870 C.ar         1 PLP501   0.0000
     7 C4A         28.0590     1.5010    56.6350 C.3          1 PLP501   0.0000
     8 C5          26.8770     1.3360    58.9610 C.ar         1 PLP501   0.0000
     9 C6          25.7680     0.9510    59.7020 C.ar         1 PLP501   0.0000
    10 C5A         28.0480     1.9640    59.6700 C.3          1 PLP501   0.0000
    11 O4P         28.1370     3.3510    59.3330 O.3          1 PLP501   0.0000
    12 P           29.5370     4.0720    59.6120 P.3          1 PLP501   0.0000
    13 O1P         30.3810     3.5630    58.4830 O.co2        1 PLP501   0.0000
    14 O2P         30.0210     3.5600    60.9590 O.co2        1 PLP501  -1.0000
    15 O3P         29.1650     5.5420    59.5900 O.co2        1 PLP501  -1.0000
    16 H2A1        23.4402    -0.6313    56.2470 H            1 PLP501   0.0000
    17 H2A2        23.2280    -1.4126    57.6652 H            1 PLP501   0.0000
    18 H2A3        22.5690     0.0645    57.4401 H            1 PLP501   0.0000
    19 H4          26.4700     0.5327    54.9536 H            1 PLP501   0.0000
    20 H4A1        28.7713     1.9153    57.2015 H            1 PLP501   0.0000
    21 H4A2        28.4223     0.6840    56.1873 H            1 PLP501   0.0000
    22 H4A3        27.7614     2.1568    55.9412 H            1 PLP501   0.0000
    23 H8          25.7582     1.1080    60.6896 H            1 PLP501   0.0000
    24 H5A1        28.8900     1.5011    59.3929 H            1 PLP501   0.0000
    25 H5A2        27.9259     1.8704    60.6581 H            1 PLP501   0.0000
    26 H11         23.9430     0.1052    59.6988 H            1 PLP501   0.0000
@<TRIPOS>BOND
     1    1    2      ar
     2    1    9      ar
     3    2    3       1
     4    2    4      ar
     5    4    5       1
     6    4    6      ar
     7    6    7       1
     8    6    8      ar
     9    8    9      ar
    10    8   10       1
    11   10   11       1
    12   11   12       1
    13   12   13      ar
    14   12   14      ar
    15   12   15      ar
    16    3   16       1
    17    3   17       1
    18    3   18       1
    19    5   19       1
    20    7   20       1
    21    7   21       1
    22    7   22       1
    23    9   23       1
    24   10   24       1
    25   10   25       1
    26    1   26       1
@<TRIPOS>SUBSTRUCTURE
     1 PLP501      1 GROUP             4 A     PLP     0 **** PLP A 501
