@<TRIPOS>MOLECULE
2xvf_FAD_1_ligand
   84    89     1     0     0
SMALL
NO_CHARGES


@<TRIPOS>ATOM
     1 PA          49.0430    76.8920    26.3450 P.3          1 FAD1448   0.0000
     2 O1A         49.8560    75.7110    26.7510 O.co2        1 FAD1448   0.0000
     3 O2A         48.0110    76.5330    25.3300 O.co2        1 FAD1448  -1.0000
     4 O5B         49.9800    78.0570    25.7860 O.3          1 FAD1448   0.0000
     5 C5B         51.0440    78.5790    26.5330 C.3          1 FAD1448   0.0000
     6 C4B         51.9830    79.2530    25.5440 C.3          1 FAD1448   0.0000
     7 O4B         53.0880    79.8010    26.2210 O.3          1 FAD1448   0.0000
     8 C3B         52.5380    78.2940    24.5030 C.3          1 FAD1448   0.0000
     9 O3B         52.2450    78.7710    23.2120 O.3          1 FAD1448   0.0000
    10 C2B         54.0290    78.2830    24.7310 C.3          1 FAD1448   0.0000
    11 O2B         54.7030    78.2350    23.4960 O.3          1 FAD1448   0.0000
    12 C1B         54.2490    79.5890    25.4620 C.3          1 FAD1448   0.0000
    13 N9A         55.4100    79.5960    26.3500 N.pl3        1 FAD1448   0.0000
    14 C8A         55.6650    78.7960    27.4250 C.2          1 FAD1448   0.0000
    15 N7A         56.8510    79.1660    27.9520 N.2          1 FAD1448   0.0000
    16 C5A         57.3520    80.1920    27.2340 C.ar         1 FAD1448   0.0000
    17 C6A         58.5140    80.9510    27.3220 C.ar         1 FAD1448   0.0000
    18 N6A         59.3020    80.9060    28.3930 N.pl3        1 FAD1448   0.0000
    19 N1A         58.7270    81.9480    26.3980 N.ar         1 FAD1448   0.0000
    20 C2A         57.8240    82.2080    25.3990 C.ar         1 FAD1448   0.0000
    21 N3A         56.6800    81.4570    25.3280 N.ar         1 FAD1448   0.0000
    22 C4A         56.4480    80.4660    26.2240 C.ar         1 FAD1448   0.0000
    23 N1          41.0470    72.4070    26.2060 N.2          1 FAD1448   0.0000
    24 C2          39.7860    72.4580    25.6440 C.2          1 FAD1448   0.0000
    25 O2          39.0450    73.4000    25.8850 O.2          1 FAD1448   0.0000
    26 N3          39.3440    71.4620    24.8050 N.pl3        1 FAD1448   0.0000
    27 C4          40.1520    70.3920    24.5140 C.2          1 FAD1448   0.0000
    28 O4          39.7090    69.5190    23.7720 O.2          1 FAD1448   0.0000
    29 C4X         41.4360    70.3270    25.0790 C.2          1 FAD1448   0.0000
    30 N5          42.2750    69.2600    24.8050 N.2          1 FAD1448   0.0000
    31 C5X         43.5280    69.2100    25.3620 C.ar         1 FAD1448   0.0000
    32 C6          44.3480    68.1260    25.0670 C.ar         1 FAD1448   0.0000
    33 C7          45.6280    68.0450    25.6080 C.ar         1 FAD1448   0.0000
    34 C7M         46.4850    66.8650    25.2600 C.3          1 FAD1448   0.0000
    35 C8          46.0740    69.0580    26.4630 C.ar         1 FAD1448   0.0000
    36 C8M         47.4390    69.0180    27.0870 C.3          1 FAD1448   0.0000
    37 C9          45.2460    70.1410    26.7630 C.ar         1 FAD1448   0.0000
    38 C9A         43.9680    70.2330    26.2140 C.ar         1 FAD1448   0.0000
    39 N10         43.1400    71.3130    26.4930 N.pl3        1 FAD1448   0.0000
    40 C10         41.8800    71.3510    25.9260 C.2          1 FAD1448   0.0000
    41 C1'         43.4690    72.3030    27.5730 C.3          1 FAD1448   0.0000
    42 C2'         44.4260    73.3970    27.1220 C.3          1 FAD1448   0.0000
    43 O2'         45.2910    73.6470    28.1990 O.3          1 FAD1448   0.0000
    44 C3'         43.7000    74.6960    26.7810 C.3          1 FAD1448   0.0000
    45 O3'         42.8480    74.4660    25.6960 O.3          1 FAD1448   0.0000
    46 C4'         44.5970    75.8520    26.3620 C.3          1 FAD1448   0.0000
    47 O4'         45.5160    75.4020    25.4050 O.3          1 FAD1448   0.0000
    48 C5'         45.3470    76.5220    27.5070 C.3          1 FAD1448   0.0000
    49 O5'         45.9460    77.6770    26.9810 O.3          1 FAD1448   0.0000
    50 P           47.1370    78.4610    27.7010 P.3          1 FAD1448   0.0000
    51 O1P         47.4770    79.6510    26.8620 O.co2        1 FAD1448   0.0000
    52 O2P         46.8290    78.8510    29.1040 O.co2        1 FAD1448  -1.0000
    53 O3P         48.3820    77.4570    27.6830 O.3          1 FAD1448   0.0000
    54 H5B1        51.5207    77.8435    27.0144 H            1 FAD1448   0.0000
    55 H5B2        50.7049    79.2464    27.1960 H            1 FAD1448   0.0000
    56 H4B         51.4905    79.9882    25.0782 H            1 FAD1448   0.0000
    57 H3B         52.1574    77.3784    24.6325 H            1 FAD1448   0.0000
    58 H5          52.6610    79.6718    23.0871 H            1 FAD1448   0.0000
    59 H2B         54.2919    77.5085    25.3063 H            1 FAD1448   0.0000
    60 H7          54.8742    79.1659    23.1733 H            1 FAD1448   0.0000
    61 H1B         54.3430    80.3269    24.7937 H            1 FAD1448   0.0000
    62 H8A         55.0755    78.0627    27.7638 H            1 FAD1448   0.0000
    63 H6A1        60.1314    81.4636    28.4273 H            1 FAD1448   0.0000
    64 H6A2        59.0649    80.3146    29.1637 H            1 FAD1448   0.0000
    65 H2A         57.9976    82.9337    24.7333 H            1 FAD1448   0.0000
    66 H13         38.4292    71.5179    24.4050 H            1 FAD1448   0.0000
    67 H14         44.0163    67.4011    24.4632 H            1 FAD1448   0.0000
    68 H7M1        47.3687    66.9474    25.7208 H            1 FAD1448   0.0000
    69 H7M2        46.0315    66.0246    25.5567 H            1 FAD1448   0.0000
    70 H7M3        46.6264    66.8360    24.2705 H            1 FAD1448   0.0000
    71 H8M1        47.5669    69.8268    27.6611 H            1 FAD1448   0.0000
    72 H8M2        47.5253    68.1944    27.6475 H            1 FAD1448   0.0000
    73 H8M3        48.1340    69.0063    26.3680 H            1 FAD1448   0.0000
    74 H21         45.5730    70.8583    27.3782 H            1 FAD1448   0.0000
    75 H1'1        43.8875    71.8112    28.3365 H            1 FAD1448   0.0000
    76 H1'2        42.6191    72.7321    27.8787 H            1 FAD1448   0.0000
    77 H2'         44.9510    73.0837    26.3306 H            1 FAD1448   0.0000
    78 H25         44.7590    73.9448    28.9916 H            1 FAD1448   0.0000
    79 H3'         43.1530    74.9787    27.5690 H            1 FAD1448   0.0000
    80 H27         42.1826    73.7600    25.9385 H            1 FAD1448   0.0000
    81 H4'         44.0199    76.5444    25.9289 H            1 FAD1448   0.0000
    82 H29         46.3602    75.9331    25.4780 H            1 FAD1448   0.0000
    83 H5'1        46.0469    75.9052    27.8672 H            1 FAD1448   0.0000
    84 H5'2        44.7105    76.7672    28.2382 H            1 FAD1448   0.0000
@<TRIPOS>BOND
     1    1    2      ar
     2    1    3      ar
     3    1    4       1
     4    1   53       1
     5    4    5       1
     6    5    6       1
     7    6    7       1
     8    6    8       1
     9    7   12       1
    10    8    9       1
    11    8   10       1
    12   10   11       1
    13   10   12       1
    14   12   13       1
    15   13   14       1
    16   13   22       1
    17   14   15       2
    18   15   16       1
    19   16   17      ar
    20   16   22      ar
    21   17   18       1
    22   17   19      ar
    23   19   20      ar
    24   20   21      ar
    25   21   22      ar
    26   23   24       1
    27   23   40       2
    28   24   25       2
    29   24   26       1
    30   26   27       1
    31   27   28       2
    32   27   29       1
    33   29   30       2
    34   29   40       1
    35   30   31       1
    36   31   32      ar
    37   31   38      ar
    38   32   33      ar
    39   33   34       1
    40   33   35      ar
    41   35   36       1
    42   35   37      ar
    43   37   38      ar
    44   38   39       1
    45   39   40       1
    46   39   41       1
    47   41   42       1
    48   42   43       1
    49   42   44       1
    50   44   45       1
    51   44   46       1
    52   46   47       1
    53   46   48       1
    54   48   49       1
    55   49   50       1
    56   50   51      ar
    57   50   52      ar
    58   50   53       1
    59   48   84       1
    60    5   54       1
    61    5   55       1
    62    6   56       1
    63    8   57       1
    64    9   58       1
    65   10   59       1
    66   11   60       1
    67   12   61       1
    68   14   62       1
    69   18   63       1
    70   18   64       1
    71   20   65       1
    72   26   66       1
    73   32   67       1
    74   34   68       1
    75   34   69       1
    76   34   70       1
    77   36   71       1
    78   36   72       1
    79   36   73       1
    80   37   74       1
    81   41   75       1
    82   41   76       1
    83   42   77       1
    84   43   78       1
    85   44   79       1
    86   45   80       1
    87   46   81       1
    88   47   82       1
    89   48   83       1
@<TRIPOS>SUBSTRUCTURE
     1 FAD1448     1 GROUP             4 A     FAD     0 **** FAD A1448
