@<TRIPOS>MOLECULE
2dvl_FAD_1_ligand
   84    89     1     0     0
SMALL
NO_CHARGES


@<TRIPOS>ATOM
     1 PA         -32.6650    -4.8790    -0.2900 P.3          1 FAD1001   0.0000
     2 O1A        -33.4770    -4.5520    -1.4830 O.co2        1 FAD1001   0.0000
     3 O2A        -32.7790    -3.9980     0.8950 O.co2        1 FAD1001  -1.0000
     4 O5B        -32.9650    -6.4000     0.1430 O.3          1 FAD1001   0.0000
     5 C5B        -32.3190    -6.9630     1.2890 C.3          1 FAD1001   0.0000
     6 C4B        -32.7650    -8.4090     1.5300 C.3          1 FAD1001   0.0000
     7 O4B        -34.2010    -8.4260     1.6400 O.3          1 FAD1001   0.0000
     8 C3B        -32.4230    -9.3080     0.3380 C.3          1 FAD1001   0.0000
     9 O3B        -32.3430   -10.6710     0.7610 O.3          1 FAD1001   0.0000
    10 C2B        -33.6580    -9.1110    -0.5370 C.3          1 FAD1001   0.0000
    11 O2B        -33.7950   -10.2220    -1.4280 O.3          1 FAD1001   0.0000
    12 C1B        -34.7190    -9.2180     0.5580 C.3          1 FAD1001   0.0000
    13 N9A        -36.0280    -8.7040     0.0980 N.pl3        1 FAD1001   0.0000
    14 C8A        -36.2770    -7.4770    -0.3580 C.2          1 FAD1001   0.0000
    15 N7A        -37.5700    -7.3600    -0.6490 N.2          1 FAD1001   0.0000
    16 C5A        -38.1530    -8.5230    -0.3770 C.ar         1 FAD1001   0.0000
    17 C6A        -39.4520    -9.0080    -0.4740 C.ar         1 FAD1001   0.0000
    18 N6A        -40.4350    -8.2200    -0.8990 N.pl3        1 FAD1001   0.0000
    19 N1A        -39.7020   -10.2770    -0.1180 N.ar         1 FAD1001   0.0000
    20 C2A        -38.7410   -11.0710     0.3220 C.ar         1 FAD1001   0.0000
    21 N3A        -37.4950   -10.6400     0.4320 N.ar         1 FAD1001   0.0000
    22 C4A        -37.1710    -9.3840     0.0940 C.ar         1 FAD1001   0.0000
    23 N1         -27.6280    -0.9630    -8.8350 N.2          1 FAD1001   0.0000
    24 C2         -27.7920    -0.0780    -9.9090 C.2          1 FAD1001   0.0000
    25 O2         -28.7580     0.6820    -9.9540 O.2          1 FAD1001   0.0000
    26 N3         -26.8270    -0.0460   -10.9250 N.pl3        1 FAD1001   0.0000
    27 C4         -25.7110    -0.8900   -10.8610 C.2          1 FAD1001   0.0000
    28 O4         -24.8560    -0.8450   -11.7440 O.2          1 FAD1001   0.0000
    29 C4X        -25.5510    -1.7590    -9.7870 C.2          1 FAD1001   0.0000
    30 N5         -24.4180    -2.5790    -9.7110 N.2          1 FAD1001   0.0000
    31 C5X        -24.2240    -3.4270    -8.6140 C.ar         1 FAD1001   0.0000
    32 C6         -23.0390    -4.1480    -8.5010 C.ar         1 FAD1001   0.0000
    33 C7         -22.7830    -4.8990    -7.3570 C.ar         1 FAD1001   0.0000
    34 C7M        -21.4510    -5.6430    -7.2410 C.3          1 FAD1001   0.0000
    35 C8         -23.7240    -4.9370    -6.3300 C.ar         1 FAD1001   0.0000
    36 C8M        -23.4820    -5.7580    -5.0610 C.3          1 FAD1001   0.0000
    37 C9         -24.9100    -4.2180    -6.4510 C.ar         1 FAD1001   0.0000
    38 C9A        -25.1660    -3.4550    -7.5880 C.ar         1 FAD1001   0.0000
    39 N10        -26.3210    -2.6620    -7.6830 N.pl3        1 FAD1001   0.0000
    40 C10        -26.5060    -1.8010    -8.7750 C.2          1 FAD1001   0.0000
    41 C1'        -27.3270    -2.6730    -6.5960 C.3          1 FAD1001   0.0000
    42 C2'        -28.2920    -3.8580    -6.6750 C.3          1 FAD1001   0.0000
    43 O2'        -29.0680    -3.7690    -7.8730 O.3          1 FAD1001   0.0000
    44 C3'        -29.1950    -3.8410    -5.4380 C.3          1 FAD1001   0.0000
    45 O3'        -28.4040    -4.2200    -4.3080 O.3          1 FAD1001   0.0000
    46 C4'        -30.3890    -4.7940    -5.5400 C.3          1 FAD1001   0.0000
    47 O4'        -31.1520    -4.5090    -6.7160 O.3          1 FAD1001   0.0000
    48 C5'        -31.2960    -4.6410    -4.3170 C.3          1 FAD1001   0.0000
    49 O5'        -30.6030    -5.0390    -3.1320 O.3          1 FAD1001   0.0000
    50 P          -30.4490    -4.0640    -1.8620 P.3          1 FAD1001   0.0000
    51 O1P        -28.9970    -3.9330    -1.6060 O.co2        1 FAD1001   0.0000
    52 O2P        -31.2370    -2.8300    -2.0750 O.co2        1 FAD1001  -1.0000
    53 O3P        -31.1030    -4.9430    -0.6800 O.3          1 FAD1001   0.0000
    54 H5B1       -32.5471    -6.4141     2.0932 H            1 FAD1001   0.0000
    55 H5B2       -31.3296    -6.9477     1.1447 H            1 FAD1001   0.0000
    56 H4B        -32.3482    -8.7665     2.3657 H            1 FAD1001   0.0000
    57 H3B        -31.5874    -9.0117    -0.1246 H            1 FAD1001   0.0000
    58 H5         -32.9611   -10.8171     1.5334 H            1 FAD1001   0.0000
    59 H2B        -33.6681    -8.2285    -1.0071 H            1 FAD1001   0.0000
    60 H7         -33.4165   -11.0421    -0.9988 H            1 FAD1001   0.0000
    61 H1B        -34.8116   -10.1703     0.8487 H            1 FAD1001   0.0000
    62 H8A        -35.5951    -6.7534    -0.4653 H            1 FAD1001   0.0000
    63 H6A1       -41.3672    -8.5756    -0.9663 H            1 FAD1001   0.0000
    64 H6A2       -40.2421    -7.2718    -1.1513 H            1 FAD1001   0.0000
    65 H2A        -38.9595   -12.0132     0.5760 H            1 FAD1001   0.0000
    66 H13        -26.9354     0.5805   -11.6969 H            1 FAD1001   0.0000
    67 H14        -22.3696    -4.1266    -9.2436 H            1 FAD1001   0.0000
    68 H7M1       -21.4174    -6.1325    -6.3696 H            1 FAD1001   0.0000
    69 H7M2       -21.3673    -6.2961    -7.9937 H            1 FAD1001   0.0000
    70 H7M3       -20.6978    -4.9867    -7.2839 H            1 FAD1001   0.0000
    71 H8M1       -24.2646    -5.6599    -4.4462 H            1 FAD1001   0.0000
    72 H8M2       -23.3676    -6.7213    -5.3039 H            1 FAD1001   0.0000
    73 H8M3       -22.6557    -5.4292    -4.6038 H            1 FAD1001   0.0000
    74 H21        -25.5852    -4.2496    -5.7140 H            1 FAD1001   0.0000
    75 H1'1       -27.8583    -1.8273    -6.6469 H            1 FAD1001   0.0000
    76 H1'2       -26.8468    -2.7128    -5.7197 H            1 FAD1001   0.0000
    77 H2'        -27.7668    -4.7089    -6.6865 H            1 FAD1001   0.0000
    78 H25        -29.9635    -4.1876    -7.7219 H            1 FAD1001   0.0000
    79 H3'        -29.5345    -2.9109    -5.2980 H            1 FAD1001   0.0000
    80 H27        -28.9830    -4.6807    -3.6353 H            1 FAD1001   0.0000
    81 H4'        -30.0549    -5.7354    -5.5854 H            1 FAD1001   0.0000
    82 H29        -31.8575    -3.8339    -6.5002 H            1 FAD1001   0.0000
    83 H5'1       -32.1065    -5.2150    -4.4336 H            1 FAD1001   0.0000
    84 H5'2       -31.5746    -3.6845    -4.2306 H            1 FAD1001   0.0000
@<TRIPOS>BOND
     1    1    2      ar
     2    1    3      ar
     3    1    4       1
     4    1   53       1
     5    4    5       1
     6    5    6       1
     7    6    7       1
     8    6    8       1
     9    7   12       1
    10    8    9       1
    11    8   10       1
    12   10   11       1
    13   10   12       1
    14   12   13       1
    15   13   14       1
    16   13   22       1
    17   14   15       2
    18   15   16       1
    19   16   17      ar
    20   16   22      ar
    21   17   18       1
    22   17   19      ar
    23   19   20      ar
    24   20   21      ar
    25   21   22      ar
    26   23   24       1
    27   23   40       2
    28   24   25       2
    29   24   26       1
    30   26   27       1
    31   27   28       2
    32   27   29       1
    33   29   30       2
    34   29   40       1
    35   30   31       1
    36   31   32      ar
    37   31   38      ar
    38   32   33      ar
    39   33   34       1
    40   33   35      ar
    41   35   36       1
    42   35   37      ar
    43   37   38      ar
    44   38   39       1
    45   39   40       1
    46   39   41       1
    47   41   42       1
    48   42   43       1
    49   42   44       1
    50   44   45       1
    51   44   46       1
    52   46   47       1
    53   46   48       1
    54   48   49       1
    55   49   50       1
    56   50   51      ar
    57   50   52      ar
    58   50   53       1
    59   48   84       1
    60    5   54       1
    61    5   55       1
    62    6   56       1
    63    8   57       1
    64    9   58       1
    65   10   59       1
    66   11   60       1
    67   12   61       1
    68   14   62       1
    69   18   63       1
    70   18   64       1
    71   20   65       1
    72   26   66       1
    73   32   67       1
    74   34   68       1
    75   34   69       1
    76   34   70       1
    77   36   71       1
    78   36   72       1
    79   36   73       1
    80   37   74       1
    81   41   75       1
    82   41   76       1
    83   42   77       1
    84   43   78       1
    85   44   79       1
    86   45   80       1
    87   46   81       1
    88   47   82       1
    89   48   83       1
@<TRIPOS>SUBSTRUCTURE
     1 FAD1001     1 GROUP             4 A     FAD     0 **** FAD A1001
