@<TRIPOS>MOLECULE
4ha9_NDP_1_ligand
   73    77     1     0     0
SMALL
NO_CHARGES


@<TRIPOS>ATOM
     1 PA         -25.0260     0.7170   -12.8320 P.3          1 NDP301   0.0000
     2 O1A        -24.5240    -0.6710   -13.4620 O.co2        1 NDP301   0.0000
     3 O2A        -24.1100     1.3720   -11.8130 O.co2        1 NDP301  -1.0000
     4 O5B        -26.2800     0.3590   -12.0340 O.3          1 NDP301   0.0000
     5 C5B        -27.3670     1.2640   -11.9190 C.3          1 NDP301   0.0000
     6 C4B        -28.5390     0.6490   -11.2740 C.3          1 NDP301   0.0000
     7 O4B        -28.0950    -0.2300   -10.2060 O.3          1 NDP301   0.0000
     8 C3B        -29.3590     1.6300   -10.6530 C.3          1 NDP301   0.0000
     9 O3B        -30.2740     2.2050   -11.5480 O.3          1 NDP301   0.0000
    10 C2B        -30.0060     0.8340    -9.6100 C.3          1 NDP301   0.0000
    11 O2B        -30.9700    -0.0570   -10.1370 O.3          1 NDP301   0.0000
    12 C1B        -28.9170     0.0180    -9.1140 C.3          1 NDP301   0.0000
    13 N9A        -28.2310     0.7470    -8.0020 N.pl3        1 NDP301   0.0000
    14 C8A        -27.0250     1.3470    -7.9900 C.2          1 NDP301   0.0000
    15 N7A        -26.8650     1.8800    -6.7650 N.2          1 NDP301   0.0000
    16 C5A        -27.9620     1.6180    -6.0100 C.ar         1 NDP301   0.0000
    17 C6A        -28.3390     1.9180    -4.6950 C.ar         1 NDP301   0.0000
    18 N6A        -27.4440     2.6660    -3.8280 N.pl3        1 NDP301   0.0000
    19 N1A        -29.5470     1.4870    -4.2540 N.ar         1 NDP301   0.0000
    20 C2A        -30.3950     0.7840    -5.0360 C.ar         1 NDP301   0.0000
    21 N3A        -30.0390     0.4950    -6.3060 N.ar         1 NDP301   0.0000
    22 C4A        -28.8490     0.8900    -6.8140 C.ar         1 NDP301   0.0000
    23 O3         -25.4720     1.7030   -13.9630 O.3          1 NDP301   0.0000
    24 PN         -24.6640     2.1940   -15.1620 P.3          1 NDP301   0.0000
    25 O1N        -24.1570     3.6100   -14.6520 O.co2        1 NDP301   0.0000
    26 O2N        -25.7160     2.4150   -16.3460 O.co2        1 NDP301  -1.0000
    27 O5D        -23.5110     1.2250   -15.5730 O.3          1 NDP301   0.0000
    28 C5D        -22.4880     1.6220   -16.4910 C.3          1 NDP301   0.0000
    29 C4D        -22.2640     0.8250   -17.7100 C.3          1 NDP301   0.0000
    30 O4D        -20.8810     0.8940   -18.0830 O.3          1 NDP301   0.0000
    31 C3D        -22.5440    -0.5740   -17.5240 C.3          1 NDP301   0.0000
    32 O3D        -22.8900    -1.1390   -18.7810 O.3          1 NDP301   0.0000
    33 C2D        -21.2890    -1.1330   -17.0810 C.3          1 NDP301   0.0000
    34 O2D        -21.1680    -2.4280   -17.4360 O.3          1 NDP301   0.0000
    35 C1D        -20.2760    -0.3300   -17.7940 C.3          1 NDP301   0.0000
    36 N1N        -19.0830    -0.2050   -16.9860 N.ar         1 NDP301   1.0000
    37 C2N        -17.8950    -0.4480   -17.5360 C.ar         1 NDP301   0.0000
    38 C3N        -16.7190    -0.3330   -16.8070 C.ar         1 NDP301   0.0000
    39 C7N        -15.3700    -0.6200   -17.4620 C.2          1 NDP301   0.0000
    40 O7N        -14.3940    -0.8870   -16.7210 O.2          1 NDP301   0.0000
    41 N7N        -15.2030    -0.5870   -18.9000 N.am         1 NDP301   0.0000
    42 C4N        -16.8120     0.0460   -15.4620 C.ar         1 NDP301   0.0000
    43 C5N        -18.0560     0.2950   -14.9130 C.ar         1 NDP301   0.0000
    44 C6N        -19.1900     0.1610   -15.6970 C.ar         1 NDP301   0.0000
    45 P2B        -32.5460     0.2640   -10.1740 P.3          1 NDP301   0.0000
    46 O1X        -32.8260     1.7200    -9.8860 O.co2        1 NDP301   0.0000
    47 O2X        -33.0250    -0.0750   -11.6180 O.co2        1 NDP301  -1.0000
    48 O3X        -33.2420    -0.6240    -9.1370 O.co2        1 NDP301  -1.0000
    49 H5B1       -27.6278     1.5716   -12.8341 H            1 NDP301   0.0000
    50 H5B2       -27.0751     2.0498   -11.3738 H            1 NDP301   0.0000
    51 H4B        -29.0698     0.1326   -11.9460 H            1 NDP301   0.0000
    52 H3B        -28.7903     2.3410   -10.2393 H            1 NDP301   0.0000
    53 H5         -31.2057     2.0376   -11.2257 H            1 NDP301   0.0000
    54 H2B        -30.3917     1.4117    -8.8906 H            1 NDP301   0.0000
    55 H1B        -29.2809    -0.8472    -8.7690 H            1 NDP301   0.0000
    56 H8A        -26.3730     1.3884    -8.7471 H            1 NDP301   0.0000
    57 H6A1       -27.7178     2.8777    -2.8898 H            1 NDP301   0.0000
    58 H6A2       -26.5543     2.9690    -4.1696 H            1 NDP301   0.0000
    59 H2A        -31.2779     0.4805    -4.6778 H            1 NDP301   0.0000
    60 H5D1       -21.6264     1.6270   -15.9834 H            1 NDP301   0.0000
    61 H5D2       -22.7062     2.5521   -16.7866 H            1 NDP301   0.0000
    62 H4D        -22.8293     1.1836   -18.4529 H            1 NDP301   0.0000
    63 H3D        -23.2668    -0.7158   -16.8477 H            1 NDP301   0.0000
    64 H16        -23.8148    -1.5166   -18.7335 H            1 NDP301   0.0000
    65 H2D        -21.1875    -1.0288   -16.0916 H            1 NDP301   0.0000
    66 H18        -21.6716    -2.5894   -18.2848 H            1 NDP301   0.0000
    67 H1D        -20.0420    -0.7881   -18.6516 H            1 NDP301   0.0000
    68 H2N        -17.8487    -0.7199   -18.4972 H            1 NDP301   0.0000
    69 H7N1       -14.3086    -0.7788   -19.3040 H            1 NDP301   0.0000
    70 H7N2       -15.9821    -0.3724   -19.4890 H            1 NDP301   0.0000
    71 H4N        -15.9868     0.1356   -14.9043 H            1 NDP301   0.0000
    72 H5N        -18.1368     0.5704   -13.9551 H            1 NDP301   0.0000
    73 H6N        -20.0919     0.3372   -15.3025 H            1 NDP301   0.0000
@<TRIPOS>BOND
     1    1    2      ar
     2    1    3      ar
     3    1    4       1
     4    1   23       1
     5    4    5       1
     6    5    6       1
     7    6    7       1
     8    6    8       1
     9    7   12       1
    10    8    9       1
    11    8   10       1
    12   10   11       1
    13   10   12       1
    14   11   45       1
    15   12   13       1
    16   13   14       1
    17   13   22       1
    18   14   15       2
    19   15   16       1
    20   16   17      ar
    21   16   22      ar
    22   17   18       1
    23   17   19      ar
    24   19   20      ar
    25   20   21      ar
    26   21   22      ar
    27   23   24       1
    28   24   25      ar
    29   24   26      ar
    30   24   27       1
    31   27   28       1
    32   28   29       1
    33   29   30       1
    34   29   31       1
    35   30   35       1
    36   31   32       1
    37   31   33       1
    38   33   34       1
    39   33   35       1
    40   35   36       1
    41   36   37      ar
    42   36   44      ar
    43   37   38      ar
    44   38   39       1
    45   38   42      ar
    46   39   40       2
    47   39   41      am
    48   42   43      ar
    49   43   44      ar
    50   45   46      ar
    51   45   47      ar
    52   45   48      ar
    53   43   72       1
    54    5   49       1
    55    5   50       1
    56    6   51       1
    57    8   52       1
    58    9   53       1
    59   10   54       1
    60   12   55       1
    61   14   56       1
    62   18   57       1
    63   18   58       1
    64   20   59       1
    65   44   73       1
    66   28   60       1
    67   28   61       1
    68   29   62       1
    69   31   63       1
    70   32   64       1
    71   33   65       1
    72   34   66       1
    73   35   67       1
    74   37   68       1
    75   41   69       1
    76   41   70       1
    77   42   71       1
@<TRIPOS>SUBSTRUCTURE
     1 NDP301      1 GROUP             4 A     NDP     0 **** NDP A 301
