@<TRIPOS>MOLECULE
1s1p_NAP_1_ligand
   73    77     1     0     0
SMALL
NO_CHARGES


@<TRIPOS>ATOM
     1 PA          28.9370   -28.3050    51.1970 P.3          1 NAP1001   0.0000
     2 O1A         28.4260   -26.9270    51.0300 O.co2        1 NAP1001   0.0000
     3 O2A         30.4330   -28.5180    51.2530 O.co2        1 NAP1001  -1.0000
     4 O5B         28.3630   -29.2720    50.0650 O.3          1 NAP1001   0.0000
     5 C5B         27.0000   -29.1960    49.7170 C.3          1 NAP1001   0.0000
     6 C4B         26.6760   -30.3190    48.7500 C.3          1 NAP1001   0.0000
     7 O4B         27.4800   -30.1720    47.6050 O.3          1 NAP1001   0.0000
     8 C3B         26.9980   -31.7150    49.2700 C.3          1 NAP1001   0.0000
     9 O3B         25.9060   -32.3130    49.9450 O.3          1 NAP1001   0.0000
    10 C2B         27.4410   -32.4820    48.0250 C.3          1 NAP1001   0.0000
    11 O2B         26.5420   -33.5020    47.6530 O.3          1 NAP1001   0.0000
    12 C1B         27.5240   -31.4200    46.9440 C.3          1 NAP1001   0.0000
    13 N9A         28.7730   -31.4540    46.1720 N.pl3        1 NAP1001   0.0000
    14 C8A         30.0390   -31.6890    46.6430 C.2          1 NAP1001   0.0000
    15 N7A         30.9300   -31.6070    45.6430 N.2          1 NAP1001   0.0000
    16 C5A         30.2300   -31.3010    44.5200 C.ar         1 NAP1001   0.0000
    17 C6A         30.6230   -31.0990    43.2060 C.ar         1 NAP1001   0.0000
    18 N6A         31.8930   -31.1710    42.8200 N.pl3        1 NAP1001   0.0000
    19 N1A         29.6610   -30.8100    42.2780 N.ar         1 NAP1001   0.0000
    20 C2A         28.3420   -30.7170    42.6410 C.ar         1 NAP1001   0.0000
    21 N3A         27.9290   -30.9040    43.9300 N.ar         1 NAP1001   0.0000
    22 C4A         28.8810   -31.1940    44.8410 C.ar         1 NAP1001   0.0000
    23 O3          28.2670   -29.0240    52.4850 O.3          1 NAP1001   0.0000
    24 PN          28.1800   -28.6390    54.0430 P.3          1 NAP1001   0.0000
    25 O1N         27.9470   -29.9190    54.7500 O.co2        1 NAP1001   0.0000
    26 O2N         27.2050   -27.5400    54.2390 O.co2        1 NAP1001  -1.0000
    27 O5D         29.6120   -28.0460    54.4420 O.3          1 NAP1001   0.0000
    28 C5D         30.7660   -28.8600    54.3690 C.3          1 NAP1001   0.0000
    29 C4D         31.2410   -29.3300    55.7440 C.3          1 NAP1001   0.0000
    30 O4D         31.4660   -28.2110    56.5950 O.3          1 NAP1001   0.0000
    31 C3D         30.3130   -30.2260    56.5590 C.3          1 NAP1001   0.0000
    32 O3D         30.2750   -31.5610    56.1010 O.3          1 NAP1001   0.0000
    33 C2D         30.9360   -30.0670    57.9250 C.3          1 NAP1001   0.0000
    34 O2D         32.1210   -30.8340    57.9710 O.3          1 NAP1001   0.0000
    35 C1D         31.2510   -28.5690    57.9440 C.3          1 NAP1001   0.0000
    36 N1N         30.1510   -27.7640    58.5200 N.ar         1 NAP1001   1.0000
    37 C2N         30.3110   -27.1850    59.7220 C.ar         1 NAP1001   0.0000
    38 C3N         29.2940   -26.4160    60.2640 C.ar         1 NAP1001   0.0000
    39 C7N         29.5790   -25.7040    61.5320 C.2          1 NAP1001   0.0000
    40 O7N         28.5140   -25.2400    62.2370 O.2          1 NAP1001   0.0000
    41 N7N         30.8190   -25.5240    61.9510 N.am         1 NAP1001   0.0000
    42 C4N         28.0920   -26.2130    59.5860 C.ar         1 NAP1001   0.0000
    43 C5N         27.9450   -26.8030    58.3450 C.ar         1 NAP1001   0.0000
    44 C6N         29.0430   -27.4560    57.8420 C.ar         1 NAP1001   0.0000
    45 P2B         27.1070   -35.0050    47.4620 P.3          1 NAP1001   0.0000
    46 O1X         27.4970   -35.5150    48.8070 O.co2        1 NAP1001   0.0000
    47 O2X         25.9270   -35.7760    46.8650 O.co2        1 NAP1001  -1.0000
    48 O3X         28.2880   -34.9460    46.5000 O.co2        1 NAP1001  -1.0000
    49 H5B1        26.8131   -28.3148    49.2828 H            1 NAP1001   0.0000
    50 H5B2        26.4381   -29.2884    50.5390 H            1 NAP1001   0.0000
    51 H4B         25.7112   -30.2714    48.4912 H            1 NAP1001   0.0000
    52 H3B         27.7711   -31.6526    49.9013 H            1 NAP1001   0.0000
    53 H5          25.1297   -32.3910    49.3194 H            1 NAP1001   0.0000
    54 H2B         28.3477   -32.8747    48.1788 H            1 NAP1001   0.0000
    55 H1B         26.7419   -31.5037    46.3264 H            1 NAP1001   0.0000
    56 H8A         30.2659   -31.8924    47.5954 H            1 NAP1001   0.0000
    57 H6A1        32.1337   -31.0184    41.8615 H            1 NAP1001   0.0000
    58 H6A2        32.6077   -31.3778    43.4882 H            1 NAP1001   0.0000
    59 H2A         27.6607   -30.5056    41.9402 H            1 NAP1001   0.0000
    60 H5D1        31.5008   -28.3362    53.9380 H            1 NAP1001   0.0000
    61 H5D2        30.5570   -29.6628    53.8106 H            1 NAP1001   0.0000
    62 H4D         32.1104   -29.8096    55.6251 H            1 NAP1001   0.0000
    63 H3D         29.3893   -29.8429    56.5618 H            1 NAP1001   0.0000
    64 H16         29.5511   -31.6586    55.4180 H            1 NAP1001   0.0000
    65 H2D         30.3009   -30.3217    58.6542 H            1 NAP1001   0.0000
    66 H18         32.7720   -30.4045    58.5969 H            1 NAP1001   0.0000
    67 H1D         32.0882   -28.4115    58.4677 H            1 NAP1001   0.0000
    68 H2N         31.1656   -27.3094    60.2262 H            1 NAP1001   0.0000
    69 H7N1        30.9916   -25.0410    62.8094 H            1 NAP1001   0.0000
    70 H7N2        31.5850   -25.8708    61.4097 H            1 NAP1001   0.0000
    71 H4N         27.3611   -25.6591    59.9846 H            1 NAP1001   0.0000
    72 H5N         27.0834   -26.7567    57.8395 H            1 NAP1001   0.0000
    73 H6N         29.0097   -27.7256    56.8796 H            1 NAP1001   0.0000
@<TRIPOS>BOND
     1    1    2      ar
     2    1    3      ar
     3    1    4       1
     4    1   23       1
     5    4    5       1
     6    5    6       1
     7    6    7       1
     8    6    8       1
     9    7   12       1
    10    8    9       1
    11    8   10       1
    12   10   11       1
    13   10   12       1
    14   11   45       1
    15   12   13       1
    16   13   14       1
    17   13   22       1
    18   14   15       2
    19   15   16       1
    20   16   17      ar
    21   16   22      ar
    22   17   18       1
    23   17   19      ar
    24   19   20      ar
    25   20   21      ar
    26   21   22      ar
    27   23   24       1
    28   24   25      ar
    29   24   26      ar
    30   24   27       1
    31   27   28       1
    32   28   29       1
    33   29   30       1
    34   29   31       1
    35   30   35       1
    36   31   32       1
    37   31   33       1
    38   33   34       1
    39   33   35       1
    40   35   36       1
    41   36   37      ar
    42   36   44      ar
    43   37   38      ar
    44   38   39       1
    45   38   42      ar
    46   39   40       2
    47   39   41      am
    48   42   43      ar
    49   43   44      ar
    50   45   46      ar
    51   45   47      ar
    52   45   48      ar
    53   43   72       1
    54    5   49       1
    55    5   50       1
    56    6   51       1
    57    8   52       1
    58    9   53       1
    59   10   54       1
    60   12   55       1
    61   14   56       1
    62   18   57       1
    63   18   58       1
    64   20   59       1
    65   44   73       1
    66   28   60       1
    67   28   61       1
    68   29   62       1
    69   31   63       1
    70   32   64       1
    71   33   65       1
    72   34   66       1
    73   35   67       1
    74   37   68       1
    75   41   69       1
    76   41   70       1
    77   42   71       1
@<TRIPOS>SUBSTRUCTURE
     1 NAP1001     1 GROUP             4 A     NAP     0 **** NAP A1001
