@<TRIPOS>MOLECULE
4ce0_SAH_1_ligand
   45    47     1     0     0
SMALL
NO_CHARGES


@<TRIPOS>ATOM
     1 N           28.5900    51.1150    18.6660 N.3          1 SAH1250   0.0000
     2 CA          29.6500    50.8590    17.6770 C.3          1 SAH1250   0.0000
     3 CB          30.9220    51.6550    17.8330 C.3          1 SAH1250   0.0000
     4 CG          32.0650    51.7660    16.8250 C.3          1 SAH1250   0.0000
     5 SD          32.3390    53.5570    16.6710 S.3          1 SAH1250   0.0000
     6 C           29.9060    49.4470    18.0220 C.2          1 SAH1250   0.0000
     7 O           30.9520    48.9880    17.5940 O.co2        1 SAH1250   0.0000
     8 OXT         28.8450    48.9790    18.7700 O.co2        1 SAH1250  -1.0000
     9 C5'         34.0560    53.6240    16.0470 C.3          1 SAH1250   0.0000
    10 C4'         35.1250    53.2810    17.0950 C.3          1 SAH1250   0.0000
    11 O4'         36.3570    52.9870    16.4710 O.3          1 SAH1250   0.0000
    12 C3'         35.4360    54.4110    18.0810 C.3          1 SAH1250   0.0000
    13 O3'         35.2170    53.9090    19.3830 O.3          1 SAH1250   0.0000
    14 C2'         36.8950    54.8240    17.8490 C.3          1 SAH1250   0.0000
    15 O2'         37.6710    55.2570    18.9870 O.3          1 SAH1250   0.0000
    16 C1'         37.4500    53.5600    17.1860 C.3          1 SAH1250   0.0000
    17 N9          38.5730    53.7380    16.2350 N.pl3        1 SAH1250   0.0000
    18 C8          38.4510    54.1180    14.9150 C.2          1 SAH1250   0.0000
    19 N7          39.6750    54.1040    14.3690 N.2          1 SAH1250   0.0000
    20 C5          40.5690    53.6870    15.2920 C.ar         1 SAH1250   0.0000
    21 C6          41.9520    53.4930    15.2750 C.ar         1 SAH1250   0.0000
    22 N6          42.6660    53.7140    14.1730 N.pl3        1 SAH1250   0.0000
    23 N1          42.5980    53.0730    16.4130 N.ar         1 SAH1250   0.0000
    24 C2          41.9030    52.8110    17.5760 C.ar         1 SAH1250   0.0000
    25 N3          40.5460    53.0370    17.5860 N.ar         1 SAH1250   0.0000
    26 C4          39.8790    53.4290    16.4650 C.ar         1 SAH1250   0.0000
    27 H1          28.7044    50.4979    19.4445 H            1 SAH1250   0.0000
    28 HA          29.2936    50.9380    16.7460 H            1 SAH1250   0.0000
    29 HB1         31.3467    51.3019    18.6666 H            1 SAH1250   0.0000
    30 HB2         30.6203    52.5961    17.9855 H            1 SAH1250   0.0000
    31 HG1         31.8034    51.3691    15.9452 H            1 SAH1250   0.0000
    32 HG2         32.8861    51.3084    17.1662 H            1 SAH1250   0.0000
    33 H5'1        34.2315    54.5499    15.7126 H            1 SAH1250   0.0000
    34 H5'2        34.1396    52.9750    15.2908 H            1 SAH1250   0.0000
    35 H4'         34.8251    52.4779    17.6099 H            1 SAH1250   0.0000
    36 H3'         34.8308    55.1884    17.9097 H            1 SAH1250   0.0000
    37 H11         35.8199    53.1277    19.5448 H            1 SAH1250   0.0000
    38 H2'         36.9044    55.5587    17.1706 H            1 SAH1250   0.0000
    39 H13         38.1257    54.4679    19.4001 H            1 SAH1250   0.0000
    40 H1'         37.7344    52.9218    17.9014 H            1 SAH1250   0.0000
    41 H15         37.6006    54.3608    14.4482 H            1 SAH1250   0.0000
    42 H16         43.6554    53.5693    14.1809 H            1 SAH1250   0.0000
    43 H17         42.2128    54.0247    13.3375 H            1 SAH1250   0.0000
    44 H18         42.3726    52.4665    18.3889 H            1 SAH1250   0.0000
    45 H19         28.6490    52.0625    18.9802 H            1 SAH1250   0.0000
@<TRIPOS>BOND
     1    1    2       1
     2    2    3       1
     3    2    6       1
     4    3    4       1
     5    4    5       1
     6    5    9       1
     7    6    7      ar
     8    6    8      ar
     9    9   10       1
    10   10   11       1
    11   10   12       1
    12   11   16       1
    13   12   13       1
    14   12   14       1
    15   14   15       1
    16   14   16       1
    17   16   17       1
    18   17   18       1
    19   17   26       1
    20   18   19       2
    21   19   20       1
    22   20   21      ar
    23   20   26      ar
    24   21   22       1
    25   21   23      ar
    26   23   24      ar
    27   24   25      ar
    28   25   26      ar
    29   24   44       1
    30    1   27       1
    31    2   28       1
    32    3   29       1
    33    3   30       1
    34    4   31       1
    35    4   32       1
    36    1   45       1
    37    9   33       1
    38    9   34       1
    39   10   35       1
    40   12   36       1
    41   13   37       1
    42   14   38       1
    43   15   39       1
    44   16   40       1
    45   18   41       1
    46   22   42       1
    47   22   43       1
@<TRIPOS>SUBSTRUCTURE
     1 SAH1250     1 GROUP             4 A     SAH     0 **** SAH A1250
