@<TRIPOS>MOLECULE
1eu1_MGD_2_ligand
   71    76     1     0     0
SMALL
NO_CHARGES


@<TRIPOS>ATOM
     1 PB          22.6410    35.5400    29.0190 P.3          1 MGD1002   0.0000
     2 O1B         23.6090    36.5530    29.5660 O.co2        1 MGD1002   0.0000
     3 O2B         22.2980    35.5820    27.5520 O.co2        1 MGD1002  -1.0000
     4 O3B         21.3350    35.6260    30.0100 O.3          1 MGD1002   0.0000
     5 O3A         19.1220    36.1790    30.9010 O.3          1 MGD1002   0.0000
     6 PA          19.8590    34.9850    30.0980 P.3          1 MGD1002   0.0000
     7 O1A         19.2940    34.7920    28.7040 O.co2        1 MGD1002   0.0000
     8 O2A         19.9000    33.7990    31.0500 O.co2        1 MGD1002  -1.0000
     9 O5'         23.2160    34.0360    29.3150 O.3          1 MGD1002   0.0000
    10 C5'         23.2250    33.4730    30.6620 C.3          1 MGD1002   0.0000
    11 C4'         24.5250    32.6410    30.8270 C.3          1 MGD1002   0.0000
    12 O4'         24.4300    31.4860    29.9180 O.3          1 MGD1002   0.0000
    13 C3'         25.8330    33.4130    30.4710 C.3          1 MGD1002   0.0000
    14 O3'         26.6670    33.4360    31.6710 O.3          1 MGD1002   0.0000
    15 C2'         26.4960    32.5110    29.3390 C.3          1 MGD1002   0.0000
    16 O2'         27.9280    32.3810    29.3980 O.3          1 MGD1002   0.0000
    17 C1'         25.7900    31.1440    29.5160 C.3          1 MGD1002   0.0000
    18 N9          25.6860    30.3400    28.2820 N.pl3        1 MGD1002   0.0000
    19 C8          25.6170    30.7540    26.9350 C.2          1 MGD1002   0.0000
    20 N7          25.5240    29.7300    26.1120 N.2          1 MGD1002   0.0000
    21 C5          25.5090    28.5700    26.9270 C.2          1 MGD1002   0.0000
    22 C6          25.3930    27.1690    26.5740 C.2          1 MGD1002   0.0000
    23 O6          25.2770    26.6680    25.4420 O.2          1 MGD1002   0.0000
    24 N1          25.4110    26.3510    27.7320 N.pl3        1 MGD1002   0.0000
    25 C2          25.5150    26.8030    29.0190 C.2          1 MGD1002   0.0000
    26 N2          25.5350    25.8550    30.0290 N.pl3        1 MGD1002   0.0000
    27 N3          25.6210    28.1350    29.3730 N.2          1 MGD1002   0.0000
    28 C4          25.5890    28.9500    28.2500 C.2          1 MGD1002   0.0000
    29 C10         19.2360    37.4800    30.3040 C.3          1 MGD1002   0.0000
    30 C11         18.2360    38.4330    31.0720 C.3          1 MGD1002   0.0000
    31 O11         19.0640    39.4800    31.6720 O.3          1 MGD1002   0.0000
    32 C12         17.2240    39.0180    30.0720 C.2          1 MGD1002   0.0000
    33 S12         16.2450    37.8270    29.1220 S.3          1 MGD1002   0.0000
    34 C13         17.0590    40.3420    29.8900 C.2          1 MGD1002   0.0000
    35 S13         15.8630    40.9040    28.7070 S.3          1 MGD1002   0.0000
    36 C14         17.8270    41.3660    30.7120 C.3          1 MGD1002   0.0000
    37 N15         19.0130    41.8650    29.9290 N.pl3        1 MGD1002   0.0000
    38 C16         20.1180    42.4560    30.7190 C.2          1 MGD1002   0.0000
    39 C17         21.1020    43.2390    30.0750 C.2          1 MGD1002   0.0000
    40 O17         21.1070    43.5180    28.8200 O.2          1 MGD1002   0.0000
    41 N18         22.1380    43.7580    30.8950 N.pl3        1 MGD1002   0.0000
    42 C19         22.1770    43.4760    32.2360 C.2          1 MGD1002   0.0000
    43 N19         23.2520    44.0490    32.9240 N.pl3        1 MGD1002   0.0000
    44 N20         21.2770    42.7320    32.8650 N.2          1 MGD1002   0.0000
    45 C21         20.2320    42.2150    32.0940 C.2          1 MGD1002   0.0000
    46 N22         19.2520    41.5290    32.7840 N.pl3        1 MGD1002   0.0000
    47 C23         18.3110    40.6850    32.0320 C.3          1 MGD1002   0.0000
    48 H5'1        22.4269    32.8839    30.7887 H            1 MGD1002   0.0000
    49 H5'2        23.2059    34.2099    31.3377 H            1 MGD1002   0.0000
    50 H4'         24.5855    32.3118    31.7693 H            1 MGD1002   0.0000
    51 H3'         25.6378    34.3361    30.1398 H            1 MGD1002   0.0000
    52 H5          27.2262    34.2650    31.6725 H            1 MGD1002   0.0000
    53 H2'         26.2464    32.8855    28.4460 H            1 MGD1002   0.0000
    54 H7          28.1680    31.5916    29.9630 H            1 MGD1002   0.0000
    55 H1'         26.2393    30.6145    30.2356 H            1 MGD1002   0.0000
    56 H9          25.6364    31.7095    26.6407 H            1 MGD1002   0.0000
    57 H10         25.3420    25.3626    27.5968 H            1 MGD1002   0.0000
    58 H11         25.6099    26.1430    30.9837 H            1 MGD1002   0.0000
    59 H12         25.4745    24.8827    29.8034 H            1 MGD1002   0.0000
    60 H13         18.9918    37.4355    29.3353 H            1 MGD1002   0.0000
    61 H14         20.1722    37.8190    30.3965 H            1 MGD1002   0.0000
    62 H15         17.7567    37.9232    31.7864 H            1 MGD1002   0.0000
    63 H16         15.5716    38.1505    28.4572 H            1 MGD1002   0.0000
    64 H17         15.7278    41.8838    28.5595 H            1 MGD1002   0.0000
    65 H18         17.2264    42.1342    30.9337 H            1 MGD1002   0.0000
    66 H19         19.0523    41.8009    28.9318 H            1 MGD1002   0.0000
    67 H20         22.8469    44.3355    30.4901 H            1 MGD1002   0.0000
    68 H21         23.3566    43.8941    33.9064 H            1 MGD1002   0.0000
    69 H22         23.9158    44.6135    32.4334 H            1 MGD1002   0.0000
    70 H23         19.1833    41.6048    33.7787 H            1 MGD1002   0.0000
    71 H24         17.5274    40.4451    32.6051 H            1 MGD1002   0.0000
@<TRIPOS>BOND
     1    1    2      ar
     2    1    3      ar
     3    1    4       1
     4    1    9       1
     5    4    6       1
     6    5    6       1
     7    5   29       1
     8    6    7      ar
     9    6    8      ar
    10    9   10       1
    11   10   11       1
    12   11   12       1
    13   11   13       1
    14   12   17       1
    15   13   14       1
    16   13   15       1
    17   15   16       1
    18   15   17       1
    19   17   18       1
    20   18   19       1
    21   18   28       1
    22   19   20       2
    23   20   21       1
    24   21   22       1
    25   21   28       2
    26   22   23       2
    27   22   24       1
    28   24   25       1
    29   25   26       1
    30   25   27       2
    31   27   28       1
    32   29   30       1
    33   30   31       1
    34   30   32       1
    35   31   47       1
    36   32   33       1
    37   32   34       2
    38   34   35       1
    39   34   36       1
    40   36   37       1
    41   36   47       1
    42   37   38       1
    43   38   39       1
    44   38   45       2
    45   39   40       2
    46   39   41       1
    47   41   42       1
    48   42   43       1
    49   42   44       2
    50   44   45       1
    51   45   46       1
    52   46   47       1
    53   47   71       1
    54   46   70       1
    55   10   48       1
    56   10   49       1
    57   11   50       1
    58   13   51       1
    59   14   52       1
    60   15   53       1
    61   16   54       1
    62   17   55       1
    63   19   56       1
    64   24   57       1
    65   26   58       1
    66   26   59       1
    67   29   60       1
    68   29   61       1
    69   30   62       1
    70   33   63       1
    71   35   64       1
    72   36   65       1
    73   37   66       1
    74   41   67       1
    75   43   68       1
    76   43   69       1
@<TRIPOS>SUBSTRUCTURE
     1 MGD1002     1 GROUP             4 A     MGD     0 **** MGD A1002
