@<TRIPOS>MOLECULE
1o69_X04_1_ligand
   28    28     1     0     0
SMALL
NO_CHARGES


@<TRIPOS>ATOM
     1 P           57.0300    53.8380    -7.7920 P.3          1 X04395   0.0000
     2 OP1         55.5250    54.2960    -7.9170 O.co2        1 X04395   0.0000
     3 OP2         57.5710    52.9970    -6.5200 O.co2        1 X04395  -1.0000
     4 OP3         57.5110    53.3470    -9.1470 O.co2        1 X04395  -1.0000
     5 OP4         57.9330    55.1910    -7.8450 O.3          1 X04395   0.0000
     6 C5A         57.5450    56.2480    -8.6930 C.3          1 X04395   0.0000
     7 C5          58.4890    57.4020    -8.9660 C.ar         1 X04395   0.0000
     8 C6          58.1820    58.6810    -8.4850 C.ar         1 X04395   0.0000
     9 N2          57.1070    58.9100    -7.7190 N.pl3        1 X04395   0.0000
    10 N1          58.9670    59.7370    -8.7630 N.ar         1 X04395   0.0000
    11 C2          60.0860    59.6110    -9.5330 C.ar         1 X04395   0.0000
    12 C2A         60.9640    60.8100    -9.8060 C.3          1 X04395   0.0000
    13 C3          60.4180    58.3660   -10.0320 C.ar         1 X04395   0.0000
    14 O3          61.5020    58.2160   -10.7770 O.3          1 X04395   0.0000
    15 C4          59.6220    57.2660    -9.7490 C.ar         1 X04395   0.0000
    16 C4A         60.0200    55.9270   -10.3240 C.3          1 X04395   0.0000
    17 O1          60.6590    55.0950    -9.3530 O.3          1 X04395   0.0000
    18 H5A1        56.7163    56.6434    -8.2970 H            1 X04395   0.0000
    19 H5A2        57.3285    55.8392    -9.5796 H            1 X04395   0.0000
    20 H3          56.9147    59.8349    -7.3909 H            1 X04395   0.0000
    21 H4          56.4969    58.1561    -7.4753 H            1 X04395   0.0000
    22 H2A1        61.7331    60.5355   -10.3832 H            1 X04395   0.0000
    23 H2A2        60.4304    61.5141   -10.2744 H            1 X04395   0.0000
    24 H2A3        61.3096    61.1739    -8.9411 H            1 X04395   0.0000
    25 H8          62.0825    59.0047   -10.9797 H            1 X04395   0.0000
    26 H4A1        60.6507    56.0773   -11.0853 H            1 X04395   0.0000
    27 H4A2        59.1997    55.4623   -10.6575 H            1 X04395   0.0000
    28 H11         60.0338    54.9332    -8.5895 H            1 X04395   0.0000
@<TRIPOS>BOND
     1    1    2      ar
     2    1    3      ar
     3    1    4      ar
     4    1    5       1
     5    5    6       1
     6    6    7       1
     7    7    8      ar
     8    7   15      ar
     9    8    9       1
    10    8   10      ar
    11   10   11      ar
    12   11   12       1
    13   11   13      ar
    14   13   14       1
    15   13   15      ar
    16   15   16       1
    17   16   17       1
    18   17   28       1
    19   16   27       1
    20    6   18       1
    21    6   19       1
    22    9   20       1
    23    9   21       1
    24   12   22       1
    25   12   23       1
    26   12   24       1
    27   14   25       1
    28   16   26       1
@<TRIPOS>SUBSTRUCTURE
     1 X04395      1 GROUP             4 B     X04     0 **** X04 B 395
