@<TRIPOS>MOLECULE
3orf_NAD_2_ligand
   70    74     1     0     0
SMALL
NO_CHARGES


@<TRIPOS>ATOM
     1 PA          28.2020   -18.8330   -17.2740 P.3          1 NAD902   0.0000
     2 O1A         28.9310   -18.4280   -16.0510 O.co2        1 NAD902   0.0000
     3 O2A         28.9470   -19.5570   -18.3220 O.co2        1 NAD902  -1.0000
     4 O5B         27.5250   -17.5080   -17.9280 O.3          1 NAD902   0.0000
     5 C5B         26.9330   -16.4830   -17.1290 C.3          1 NAD902   0.0000
     6 C4B         27.1580   -15.0460   -17.7180 C.3          1 NAD902   0.0000
     7 O4B         26.3450   -14.0840   -16.9300 O.3          1 NAD902   0.0000
     8 C3B         28.6200   -14.5100   -17.6980 C.3          1 NAD902   0.0000
     9 O3B         28.9320   -13.9410   -18.9680 O.3          1 NAD902   0.0000
    10 C2B         28.5870   -13.4070   -16.6270 C.3          1 NAD902   0.0000
    11 O2B         29.4280   -12.3090   -16.9450 O.3          1 NAD902   0.0000
    12 C1B         27.1730   -12.8940   -16.7910 C.3          1 NAD902   0.0000
    13 N9A         26.6700   -12.1260   -15.6390 N.pl3        1 NAD902   0.0000
    14 C8A         26.8610   -12.3450   -14.3240 C.2          1 NAD902   0.0000
    15 N7A         26.1770   -11.4320   -13.6090 N.2          1 NAD902   0.0000
    16 C5A         25.5860   -10.6210   -14.4910 C.ar         1 NAD902   0.0000
    17 C6A         24.7890    -9.5030   -14.3430 C.ar         1 NAD902   0.0000
    18 N6A         24.4960    -9.0530   -13.1210 N.pl3        1 NAD902   0.0000
    19 N1A         24.3180    -8.9090   -15.4500 N.ar         1 NAD902   0.0000
    20 C2A         24.6310    -9.3700   -16.6770 C.ar         1 NAD902   0.0000
    21 N3A         25.4070   -10.4110   -16.8750 N.ar         1 NAD902   0.0000
    22 C4A         25.8840   -11.0540   -15.7780 C.ar         1 NAD902   0.0000
    23 O3          26.8280   -19.5710   -16.8240 O.3          1 NAD902   0.0000
    24 PN          26.0480   -20.7250   -17.4920 P.3          1 NAD902   0.0000
    25 O1N         26.5160   -22.0500   -17.0980 O.co2        1 NAD902   0.0000
    26 O2N         25.8190   -20.4060   -18.9110 O.co2        1 NAD902  -1.0000
    27 O5D         24.6150   -20.6310   -16.7600 O.3          1 NAD902   0.0000
    28 C5D         23.7210   -19.6280   -17.0740 C.3          1 NAD902   0.0000
    29 C4D         22.5100   -19.7090   -16.2200 C.3          1 NAD902   0.0000
    30 O4D         22.1900   -21.0840   -15.8330 O.3          1 NAD902   0.0000
    31 C3D         22.8180   -18.9810   -14.9160 C.3          1 NAD902   0.0000
    32 O3D         21.6280   -18.3130   -14.5260 O.3          1 NAD902   0.0000
    33 C2D         23.1080   -20.0740   -13.9410 C.3          1 NAD902   0.0000
    34 O2D         22.8240   -19.5690   -12.6660 O.3          1 NAD902   0.0000
    35 C1D         22.0410   -21.0730   -14.3770 C.3          1 NAD902   0.0000
    36 N1N         22.2170   -22.4650   -13.9320 N.ar         1 NAD902   1.0000
    37 C2N         23.3270   -23.1790   -14.4430 C.ar         1 NAD902   0.0000
    38 C3N         23.5860   -24.5000   -14.0780 C.ar         1 NAD902   0.0000
    39 C7N         24.8430   -25.1890   -14.7020 C.2          1 NAD902   0.0000
    40 O7N         25.1250   -26.3850   -14.4450 O.2          1 NAD902   0.0000
    41 N7N         25.5780   -24.3810   -15.5380 N.am         1 NAD902   0.0000
    42 C4N         22.7120   -25.1380   -13.1750 C.ar         1 NAD902   0.0000
    43 C5N         21.5970   -24.4420   -12.6330 C.ar         1 NAD902   0.0000
    44 C6N         21.3230   -23.1030   -13.0240 C.ar         1 NAD902   0.0000
    45 H5B1        27.3344   -16.5195   -16.2138 H            1 NAD902   0.0000
    46 H5B2        25.9494   -16.6531   -17.0687 H            1 NAD902   0.0000
    47 H4B         26.8308   -15.0368   -18.6629 H            1 NAD902   0.0000
    48 H3B         29.2677   -15.2321   -17.4551 H            1 NAD902   0.0000
    49 H5          28.3024   -13.1881   -19.1597 H            1 NAD902   0.0000
    50 H2B         28.7581   -13.7635   -15.7085 H            1 NAD902   0.0000
    51 H7          28.9105   -11.6342   -17.4711 H            1 NAD902   0.0000
    52 H1B         27.1091   -12.3393   -17.6206 H            1 NAD902   0.0000
    53 H8A         27.4250   -13.0747   -13.9375 H            1 NAD902   0.0000
    54 H6A1        23.9191    -8.2436   -13.0112 H            1 NAD902   0.0000
    55 H6A2        24.8534    -9.5252   -12.3153 H            1 NAD902   0.0000
    56 H2A         24.2549    -8.8974   -17.4740 H            1 NAD902   0.0000
    57 H5D1        23.4517   -19.7182   -18.0328 H            1 NAD902   0.0000
    58 H5D2        24.1616   -18.7413   -16.9335 H            1 NAD902   0.0000
    59 H4D         21.7297   -19.2855   -16.6801 H            1 NAD902   0.0000
    60 H3D         23.5879   -18.3501   -15.0117 H            1 NAD902   0.0000
    61 H17         21.6158   -17.3950   -14.9224 H            1 NAD902   0.0000
    62 H2D         24.0375   -20.4339   -14.0214 H            1 NAD902   0.0000
    63 H19         23.4014   -18.7724   -12.4868 H            1 NAD902   0.0000
    64 H1D         21.1321   -20.7411   -14.1245 H            1 NAD902   0.0000
    65 H2N         23.9437   -22.7230   -15.0846 H            1 NAD902   0.0000
    66 H7N1        26.3998   -24.7374   -15.9826 H            1 NAD902   0.0000
    67 H7N2        25.2905   -23.4372   -15.7012 H            1 NAD902   0.0000
    68 H4N         22.8776   -26.0888   -12.9131 H            1 NAD902   0.0000
    69 H5N         21.0011   -24.8978   -11.9718 H            1 NAD902   0.0000
    70 H6N         20.5219   -22.6202   -12.6703 H            1 NAD902   0.0000
@<TRIPOS>BOND
     1    1    2      ar
     2    1    3      ar
     3    1    4       1
     4    1   23       1
     5    4    5       1
     6    5    6       1
     7    6    7       1
     8    6    8       1
     9    7   12       1
    10    8    9       1
    11    8   10       1
    12   10   11       1
    13   10   12       1
    14   12   13       1
    15   13   14       1
    16   13   22       1
    17   14   15       2
    18   15   16       1
    19   16   17      ar
    20   16   22      ar
    21   17   18       1
    22   17   19      ar
    23   19   20      ar
    24   20   21      ar
    25   21   22      ar
    26   23   24       1
    27   24   25      ar
    28   24   26      ar
    29   24   27       1
    30   27   28       1
    31   28   29       1
    32   29   30       1
    33   29   31       1
    34   30   35       1
    35   31   32       1
    36   31   33       1
    37   33   34       1
    38   33   35       1
    39   35   36       1
    40   36   37      ar
    41   36   44      ar
    42   37   38      ar
    43   38   39       1
    44   38   42      ar
    45   39   40       2
    46   39   41      am
    47   42   43      ar
    48   43   44      ar
    49   44   70       1
    50    5   45       1
    51    5   46       1
    52    6   47       1
    53    8   48       1
    54    9   49       1
    55   10   50       1
    56   11   51       1
    57   12   52       1
    58   14   53       1
    59   18   54       1
    60   18   55       1
    61   20   56       1
    62   43   69       1
    63   28   57       1
    64   28   58       1
    65   29   59       1
    66   31   60       1
    67   32   61       1
    68   33   62       1
    69   34   63       1
    70   35   64       1
    71   37   65       1
    72   41   66       1
    73   41   67       1
    74   42   68       1
@<TRIPOS>SUBSTRUCTURE
     1 NAD902      1 GROUP             4 B     NAD     0 **** NAD B 902
