@<TRIPOS>MOLECULE
3rbq_GLY_ALA_GLY_ALA_DAO_3_ligand
   35    34     4     0     0
SMALL
NO_CHARGES


@<TRIPOS>ATOM
     1 N           46.1120   -24.1050     9.0560 N.am         1 GLY501   0.0000
     2 CA          45.3190   -25.0690     8.2000 C.3          1 GLY501   0.0000
     3 C           43.9210   -25.2810     8.7640 C.2          1 GLY501   0.0000
     4 O           43.0450   -25.7470     8.0380 O.2          1 GLY501   0.0000
     5 HA1         45.7958   -25.9475     8.1703 H            1 GLY501   0.0000
     6 HA2         45.2448   -24.6985     7.2741 H            1 GLY501   0.0000
     7 H26         46.8924   -24.3835     9.6159 H            1 GLY501   0.0000
     8 N           43.6940   -24.9140    10.0330 N.am         2 ALA502   0.0000
     9 CA          42.3840   -25.1210    10.6720 C.3          2 ALA502   0.0000
    10 C           41.2580   -24.3260    10.0120 C.2          2 ALA502   0.0000
    11 O           40.0740   -24.7610    10.0660 O.2          2 ALA502   0.0000
    12 CB          42.4430   -24.8280    12.1960 C.3          2 ALA502   0.0000
    13 H27         44.4318   -24.4896    10.5580 H            2 ALA502   0.0000
    14 HA          42.1578   -26.0896    10.5688 H            2 ALA502   0.0000
    15 HB1         41.5402   -24.9774    12.5994 H            2 ALA502   0.0000
    16 HB2         43.1063   -25.4394    12.6276 H            2 ALA502   0.0000
    17 HB3         42.7205   -23.8785    12.3424 H            2 ALA502   0.0000
    18 N           41.6160   -23.1630     9.4110 N.am         3 GLY503   0.0000
    19 CA          40.6740   -22.3900     8.6110 C.3          3 GLY503   0.0000
    20 C           40.0840   -23.1490     7.4160 C.2          3 GLY503   0.0000
    21 O           39.1230   -22.7300     6.8800 O.2          3 GLY503   0.0000
    22 H32         42.5516   -22.8272     9.5200 H            3 GLY503   0.0000
    23 H33         41.1487   -21.5811     8.2640 H            3 GLY503   0.0000
    24 H34         39.9204   -22.1056     9.2036 H            3 GLY503   0.0000
    25 N           40.6810   -24.2490     6.9750 N.am         4 ALA504   0.0000
    26 CA          40.1320   -24.9760     5.8020 C.3          4 ALA504   0.0000
    27 C           38.7350   -25.5420     6.1410 C.2          4 ALA504   0.0000
    28 O           37.8230   -25.3010     5.3680 O.2          4 ALA504   0.0000
    29 CB          41.0690   -26.0870     5.3420 C.3          4 ALA504   0.0000
    30 H35         41.5021   -24.5891     7.4333 H            4 ALA504   0.0000
    31 H36         40.0300   -24.3236     5.0510 H            4 ALA504   0.0000
    32 H37         38.5838   -26.0871     6.9657 H            4 ALA504   0.0000
    33 H38         40.6699   -26.5544     4.5532 H            4 ALA504   0.0000
    34 H39         41.9516   -25.6935     5.0848 H            4 ALA504   0.0000
    35 H40         41.2002   -26.7419     6.0863 H            4 ALA504   0.0000
@<TRIPOS>BOND
     1    3    8      am
     2    1    2       1
     3    2    3       1
     4    3    4       2
     5    2    6       1
     6    2    5       1
     7    1    7       1
     8    8    9       1
     9    9   12       1
    10    9   10       1
    11   10   11       2
    12   12   17       1
    13    8   13       1
    14    9   14       1
    15   10   18      am
    16   12   15       1
    17   12   16       1
    18   18   19       1
    19   19   20       1
    20   20   21       2
    21   20   25      am
    22   18   22       1
    23   19   23       1
    24   19   24       1
    25   25   26       1
    26   26   29       1
    27   26   27       1
    28   27   28       2
    29   29   35       1
    30   25   30       1
    31   26   31       1
    32   27   32       1
    33   29   33       1
    34   29   34       1
@<TRIPOS>SUBSTRUCTURE
     1 GLY501      1 RESIDUE           4 J     GLY     0 **** GLY J 501
     2 ALA502      8 RESIDUE           4 J     ALA     0 **** ALA J 502
     3 GLY503     18 RESIDUE           4 J     GLY     0 **** GLY J 503
     4 ALA504     25 RESIDUE           4 J     ALA     0 **** ALA J 504
