@<TRIPOS>MOLECULE
2poq_ISD_1_ligand
   18    18     1     0     0
SMALL
NO_CHARGES


@<TRIPOS>ATOM
     1 O6         -15.4620   -47.8030     2.6370 O.2          1 ISD500   0.0000
     2 C5         -15.8510   -46.8260     3.2280 C.2          1 ISD500   0.0000
     3 C4         -15.7920   -46.7720     4.4890 C.2          1 ISD500   0.0000
     4 O8         -16.2030   -47.8320     5.2000 O.2          1 ISD500   0.0000
     5 C3         -15.3490   -45.5140     4.7700 C.2          1 ISD500   0.0000
     6 O7         -14.4850   -45.1570     5.7440 O.2          1 ISD500   0.0000
     7 O1         -16.2980   -45.5250     2.7460 O.3          1 ISD500   0.0000
     8 C2         -15.8980   -44.5310     3.7340 C.3          1 ISD500   0.0000
     9 C9         -14.9920   -43.3640     3.1580 C.3          1 ISD500   0.0000
    10 O11        -13.8600   -42.9860     3.9670 O.3          1 ISD500   0.0000
    11 C13        -15.7240   -42.0410     2.8600 C.3          1 ISD500   0.0000
    12 O14        -16.0470   -41.8130     1.4730 O.3          1 ISD500   0.0000
    13 H1         -16.7281   -44.1193     4.1100 H            1 ISD500   0.0000
    14 H2         -14.6249   -43.6903     2.2869 H            1 ISD500   0.0000
    15 H3         -13.5386   -43.7803     4.4825 H            1 ISD500   0.0000
    16 H4         -15.1412   -41.2893     3.1689 H            1 ISD500   0.0000
    17 H5         -16.5778   -42.0365     3.3806 H            1 ISD500   0.0000
    18 H6         -15.2056   -41.7992     0.9327 H            1 ISD500   0.0000
@<TRIPOS>BOND
     1    1    2       2
     2    2    3       1
     3    2    7       1
     4    3    4       2
     5    3    5       1
     6    5    6       2
     7    5    8       1
     8    7    8       1
     9    8    9       1
    10    9   10       1
    11    9   11       1
    12   11   12       1
    13    8   13       1
    14    9   14       1
    15   10   15       1
    16   11   16       1
    17   11   17       1
    18   12   18       1
@<TRIPOS>SUBSTRUCTURE
     1 ISD500      1 GROUP             4 X     ISD     0 **** ISD X 500
