@<TRIPOS>MOLECULE
2vpr_TDC_1_ligand
   53    56     1     0     0
SMALL
NO_CHARGES


@<TRIPOS>ATOM
     1 O12          3.6120    42.9190    33.2390 O.2          1 TDC1206   0.0000
     2 C12          4.7300    42.3350    33.2970 C.2          1 TDC1206   0.0000
     3 C1B          5.2980    41.8480    34.5890 C.ar         1 TDC1206   0.0000
     4 C11          4.5740    42.0110    35.7720 C.ar         1 TDC1206   0.0000
     5 O11          3.2800    42.6050    35.7800 O.3          1 TDC1206  -1.0000
     6 C1A          5.1260    41.5300    36.9650 C.ar         1 TDC1206   0.0000
     7 C10          4.4210    41.6490    38.1630 C.ar         1 TDC1206   0.0000
     8 O10          3.1600    42.2480    38.2060 O.3          1 TDC1206   0.0000
     9 C9           5.0340    41.1350    39.4320 C.ar         1 TDC1206   0.0000
    10 C8           6.2970    40.5330    39.3990 C.ar         1 TDC1206   0.0000
    11 C7           6.9530    40.4260    38.1650 C.ar         1 TDC1206   0.0000
    12 C61          6.3870    40.9170    36.9650 C.ar         1 TDC1206   0.0000
    13 C6           7.1100    40.7720    35.7700 C.ar         1 TDC1206   0.0000
    14 C62          8.4890    40.1290    35.7690 C.3          1 TDC1206   0.0000
    15 C51          6.5720    41.2630    34.5790 C.ar         1 TDC1206   0.0000
    16 C5           7.3520    41.1380    33.2500 C.3          1 TDC1206   0.0000
    17 C1C          5.4760    42.1400    32.0090 C.3          1 TDC1206   0.0000
    18 C1           5.1450    40.7960    31.3190 C.2          1 TDC1206   0.0000
    19 O1           4.2330    40.0580    31.7010 O.3          1 TDC1206   0.0000
    20 O1C          5.1330    43.2070    31.1550 O.3          1 TDC1206   0.0000
    21 C41          6.9640    42.2280    32.2280 C.3          1 TDC1206   0.0000
    22 C4           7.8110    42.0580    30.9390 C.3          1 TDC1206   0.0000
    23 N4           8.4140    43.2900    30.2970 N.4          1 TDC1206   1.0000
    24 C43          9.4860    43.7710    31.2440 C.3          1 TDC1206   0.0000
    25 C42          7.4170    44.3570    29.8950 C.3          1 TDC1206   0.0000
    26 C3           7.1560    41.0930    29.9140 C.2          1 TDC1206   0.0000
    27 O3           7.7620    40.7940    28.8860 O.2          1 TDC1206   0.0000
    28 C2           5.9010    40.4580    30.1390 C.2          1 TDC1206   0.0000
    29 C21          5.4450    39.4480    29.1750 C.2          1 TDC1206   0.0000
    30 O21          6.2630    38.9530    28.3990 O.2          1 TDC1206   0.0000
    31 N21          4.2550    38.8800    29.1700 N.am         1 TDC1206   0.0000
    32 H1           2.7456    42.6017    37.3674 H            1 TDC1206   0.0000
    33 H2           4.5420    41.2222    40.2982 H            1 TDC1206   0.0000
    34 H3           6.7213    40.1874    40.2360 H            1 TDC1206   0.0000
    35 H4           7.8513    39.9879    38.1317 H            1 TDC1206   0.0000
    36 H5           8.8480    40.1116    34.8358 H            1 TDC1206   0.0000
    37 H6           9.1042    40.6586    36.3530 H            1 TDC1206   0.0000
    38 H7           8.4211    39.1941    36.1175 H            1 TDC1206   0.0000
    39 H8           7.1612    40.2416    32.8499 H            1 TDC1206   0.0000
    40 H9           8.3299    41.2149    33.4443 H            1 TDC1206   0.0000
    41 H10          3.6731    40.3208    32.4868 H            1 TDC1206   0.0000
    42 H1C          4.9238    44.0177    31.7019 H            1 TDC1206   0.0000
    43 H12          7.1717    43.1215    32.6261 H            1 TDC1206   0.0000
    44 H13          8.6113    41.5486    31.2554 H            1 TDC1206   0.0000
    45 H14          9.9210    44.5889    30.8674 H            1 TDC1206   0.0000
    46 H15          9.0752    43.9895    32.1292 H            1 TDC1206   0.0000
    47 H16         10.1722    43.0533    31.3630 H            1 TDC1206   0.0000
    48 H17          7.9021    45.1280    29.4823 H            1 TDC1206   0.0000
    49 H18          6.7708    43.9770    29.2332 H            1 TDC1206   0.0000
    50 H19          6.9199    44.6705    30.7041 H            1 TDC1206   0.0000
    51 H20          4.0289    38.1991    28.4734 H            1 TDC1206   0.0000
    52 H21          3.5787    39.1301    29.8628 H            1 TDC1206   0.0000
    53 H22          8.8743    42.9895    29.4617 H            1 TDC1206   0.0000
@<TRIPOS>BOND
     1    1    2       2
     2    2    3       1
     3    2   17       1
     4    3    4      ar
     5    3   15      ar
     6    4    5       1
     7    4    6      ar
     8    6    7      ar
     9    6   12      ar
    10    7    8       1
    11    7    9      ar
    12    9   10      ar
    13   10   11      ar
    14   11   12      ar
    15   12   13      ar
    16   13   14       1
    17   13   15      ar
    18   15   16       1
    19   16   21       1
    20   17   18       1
    21   17   20       1
    22   17   21       1
    23   18   19       1
    24   18   28       2
    25   21   22       1
    26   22   23       1
    27   22   26       1
    28   23   24       1
    29   23   25       1
    30   26   27       2
    31   26   28       1
    32   28   29       1
    33   29   30       2
    34   29   31      am
    35   23   53       1
    36    8   32       1
    37    9   33       1
    38   10   34       1
    39   11   35       1
    40   14   36       1
    41   14   37       1
    42   14   38       1
    43   16   39       1
    44   16   40       1
    45   19   41       1
    46   20   42       1
    47   21   43       1
    48   22   44       1
    49   24   45       1
    50   24   46       1
    51   24   47       1
    52   25   48       1
    53   25   49       1
    54   25   50       1
    55   31   51       1
    56   31   52       1
@<TRIPOS>SUBSTRUCTURE
     1 TDC1206     1 GROUP             4 A     TDC     0 **** TDC A1206
