@<TRIPOS>MOLECULE
1ifx_DND_1_ligand
   68    72     1     0     0
SMALL
NO_CHARGES


@<TRIPOS>ATOM
     1 PN          18.6190    55.1940    36.5720 P.3          1 DND8000   0.0000
     2 O11         19.2620    53.8590    36.4920 O.co2        1 DND8000   0.0000
     3 O12         19.4130    56.4050    36.2190 O.co2        1 DND8000  -1.0000
     4 O3P         17.1690    55.1010    35.8280 O.3          1 DND8000   0.0000
     5 O5D         17.8810    55.3830    37.9680 O.3          1 DND8000   0.0000
     6 C5D         17.7440    54.4140    38.9650 C.3          1 DND8000   0.0000
     7 C4D         18.2120    55.4270    39.9540 C.3          1 DND8000   0.0000
     8 O4D         17.8930    56.8290    39.9090 O.3          1 DND8000   0.0000
     9 C3D         18.9990    55.0900    41.2000 C.3          1 DND8000   0.0000
    10 O3D         18.6260    54.1830    42.2210 O.3          1 DND8000   0.0000
    11 C2D         19.5980    56.4240    41.4930 C.3          1 DND8000   0.0000
    12 O2D         20.8500    56.6550    40.8510 O.3          1 DND8000   0.0000
    13 C1D         18.2960    57.0950    41.2470 C.3          1 DND8000   0.0000
    14 N1N         17.2820    57.0570    42.3200 N.ar         1 DND8000   1.0000
    15 C6N         15.9060    56.8240    42.0770 C.ar         1 DND8000   0.0000
    16 C5N         15.0110    56.8280    43.1290 C.ar         1 DND8000   0.0000
    17 C4N         15.5370    56.9780    44.4310 C.ar         1 DND8000   0.0000
    18 C3N         16.9270    57.0960    44.7050 C.ar         1 DND8000   0.0000
    19 C2N         17.7840    57.2090    43.6160 C.ar         1 DND8000   0.0000
    20 C7N         17.5160    56.5400    46.0350 C.2          1 DND8000   0.0000
    21 O7N         16.7790    56.6530    47.0370 O.co2        1 DND8000   0.0000
    22 O8N         18.6410    55.9920    46.0050 O.co2        1 DND8000  -1.0000
    23 PA          16.1780    56.0600    34.9910 P.3          1 DND8000   0.0000
    24 O13         15.0720    55.1910    34.4810 O.co2        1 DND8000   0.0000
    25 O14         15.8550    57.1780    35.8510 O.co2        1 DND8000  -1.0000
    26 O5B         16.9710    56.6230    33.6510 O.3          1 DND8000   0.0000
    27 C5B         17.7610    55.7420    32.8330 C.3          1 DND8000   0.0000
    28 C4B         17.0690    55.6810    31.5020 C.3          1 DND8000   0.0000
    29 O4B         16.8450    56.9480    30.8650 O.3          1 DND8000   0.0000
    30 C3B         17.0190    54.5140    30.5060 C.3          1 DND8000   0.0000
    31 O3B         16.4210    53.2030    30.6320 O.3          1 DND8000   0.0000
    32 C2B         16.6680    55.2020    29.2160 C.3          1 DND8000   0.0000
    33 O2B         15.3450    54.7310    28.8690 O.3          1 DND8000   0.0000
    34 C1B         17.0920    56.6190    29.4920 C.3          1 DND8000   0.0000
    35 N9A         18.2260    57.2670    28.8790 N.pl3        1 DND8000   0.0000
    36 C4A         18.2620    58.1230    27.8630 C.ar         1 DND8000   0.0000
    37 N3A         17.4200    58.9060    27.1700 N.ar         1 DND8000   0.0000
    38 C2A         17.9100    59.8020    26.2950 C.ar         1 DND8000   0.0000
    39 N1A         19.2350    59.9810    26.0880 N.ar         1 DND8000   0.0000
    40 C6A         20.1540    59.2530    26.7710 C.ar         1 DND8000   0.0000
    41 C5A         19.6280    58.3170    27.6600 C.ar         1 DND8000   0.0000
    42 N7A         20.3910    57.6940    28.5480 N.2          1 DND8000   0.0000
    43 C8A         19.4940    57.0090    29.2580 C.2          1 DND8000   0.0000
    44 N6A         21.4570    59.5210    26.7550 N.pl3        1 DND8000   0.0000
    45 H5D1        18.3500    53.6253    38.8619 H            1 DND8000   0.0000
    46 H5D2        16.8064    54.0974    39.1087 H            1 DND8000   0.0000
    47 H4D         19.0536    55.5783    39.4355 H            1 DND8000   0.0000
    48 H3D         19.7842    54.6143    40.8035 H            1 DND8000   0.0000
    49 H5          19.3381    54.1598    42.9227 H            1 DND8000   0.0000
    50 H2D         19.7638    56.4599    42.4785 H            1 DND8000   0.0000
    51 H7          20.9561    57.6326    40.6694 H            1 DND8000   0.0000
    52 H1D         18.5479    58.0622    41.2144 H            1 DND8000   0.0000
    53 H6N         15.5832    56.6569    41.1454 H            1 DND8000   0.0000
    54 H5N         14.0280    56.7285    42.9746 H            1 DND8000   0.0000
    55 H4N         14.8985    57.0025    45.2002 H            1 DND8000   0.0000
    56 H2N         18.7554    57.3982    43.7591 H            1 DND8000   0.0000
    57 H5B1        17.8040    54.8315    33.2442 H            1 DND8000   0.0000
    58 H5B2        18.6872    56.1039    32.7268 H            1 DND8000   0.0000
    59 H4B         16.1421    55.5667    31.8595 H            1 DND8000   0.0000
    60 H3B         17.9870    54.2979    30.3785 H            1 DND8000   0.0000
    61 H17         15.7281    53.0829    29.9210 H            1 DND8000   0.0000
    62 H2B         17.2919    54.8453    28.5207 H            1 DND8000   0.0000
    63 H19         15.0536    55.1568    28.0124 H            1 DND8000   0.0000
    64 H1B         16.3442    57.1169    29.0528 H            1 DND8000   0.0000
    65 H2A         17.2657    60.3614    25.7736 H            1 DND8000   0.0000
    66 H8A         19.7353    56.3734    29.9914 H            1 DND8000   0.0000
    67 H6A1        22.0911    58.9510    27.2775 H            1 DND8000   0.0000
    68 H6A2        21.8023    60.2924    26.2205 H            1 DND8000   0.0000
@<TRIPOS>BOND
     1    1    2      ar
     2    1    3      ar
     3    1    4       1
     4    1    5       1
     5    4   23       1
     6    5    6       1
     7    6    7       1
     8    7    8       1
     9    7    9       1
    10    8   13       1
    11    9   10       1
    12    9   11       1
    13   11   12       1
    14   11   13       1
    15   13   14       1
    16   14   15      ar
    17   14   19      ar
    18   15   16      ar
    19   16   17      ar
    20   17   18      ar
    21   18   19      ar
    22   18   20       1
    23   20   21      ar
    24   20   22      ar
    25   23   24      ar
    26   23   25      ar
    27   23   26       1
    28   26   27       1
    29   27   28       1
    30   28   29       1
    31   28   30       1
    32   29   34       1
    33   30   31       1
    34   30   32       1
    35   32   33       1
    36   32   34       1
    37   34   35       1
    38   35   36       1
    39   35   43       1
    40   36   37      ar
    41   36   41      ar
    42   37   38      ar
    43   38   39      ar
    44   39   40      ar
    45   40   41      ar
    46   40   44       1
    47   41   42       1
    48   42   43       2
    49   44   68       1
    50    6   45       1
    51    6   46       1
    52    7   47       1
    53    9   48       1
    54   10   49       1
    55   11   50       1
    56   12   51       1
    57   13   52       1
    58   15   53       1
    59   16   54       1
    60   17   55       1
    61   19   56       1
    62   44   67       1
    63   43   66       1
    64   27   57       1
    65   27   58       1
    66   28   59       1
    67   30   60       1
    68   31   61       1
    69   32   62       1
    70   33   63       1
    71   34   64       1
    72   38   65       1
@<TRIPOS>SUBSTRUCTURE
     1 DND8000     1 GROUP             4 A     DND     0 **** DND A8000
