@<TRIPOS>MOLECULE
4skn_URA_1_ligand
   11    11     1     0     0
SMALL
NO_CHARGES


@<TRIPOS>ATOM
     1 N1          16.9460     2.6560     8.2860 N.pl3        1 URA305  -1.0000
     2 C2          16.8540     2.7590     6.9170 C.2          1 URA305   0.0000
     3 O2          15.7920     2.7070     6.3300 O.2          1 URA305   0.0000
     4 N3          18.0480     2.9370     6.2640 N.pl3        1 URA305   0.0000
     5 C4          19.3020     3.0620     6.8370 C.2          1 URA305   0.0000
     6 O4          20.2810     3.3480     6.1320 O.2          1 URA305   0.0000
     7 C5          19.3070     2.9460     8.2660 C.2          1 URA305   0.0000
     8 C6          18.1590     2.7470     8.9230 C.2          1 URA305   0.0000
     9 H1          18.0077     2.9812     5.2658 H            1 URA305   0.0000
    10 H2          20.1676     3.0138     8.7708 H            1 URA305   0.0000
    11 H3          18.1852     2.6610     9.9189 H            1 URA305   0.0000
@<TRIPOS>BOND
     1    1    2       1
     2    1    8       1
     3    2    3       2
     4    2    4       1
     5    4    5       1
     6    5    6       2
     7    5    7       1
     8    7    8       2
     9    8   11       1
    10    4    9       1
    11    7   10       1
@<TRIPOS>SUBSTRUCTURE
     1 URA305      1 GROUP             4 E     URA     0 **** URA E 305
