@<TRIPOS>MOLECULE
4nh0_ATP_2_ligand
   43    45     1     0     0
SMALL
NO_CHARGES


@<TRIPOS>ATOM
     1 PG         -61.5190   -14.9320    51.8070 P.3          1 ATP1405   0.0000
     2 O1G        -62.6670   -15.8350    51.4330 O.co2        1 ATP1405   0.0000
     3 O2G        -60.2740   -15.6600    52.2480 O.co2        1 ATP1405  -1.0000
     4 O3G        -61.2630   -13.8130    50.8280 O.co2        1 ATP1405  -1.0000
     5 PB         -62.4420   -15.0500    54.4320 P.3          1 ATP1405   0.0000
     6 O1B        -61.2450   -15.8530    54.8720 O.co2        1 ATP1405   0.0000
     7 O2B        -63.7430   -15.7430    54.1160 O.co2        1 ATP1405  -1.0000
     8 O3B        -62.0320   -14.1870    53.1390 O.3          1 ATP1405   0.0000
     9 PA         -61.5870   -13.4950    56.5760 P.3          1 ATP1405   0.0000
    10 O1A        -61.5470   -14.4720    57.7230 O.co2        1 ATP1405   0.0000
    11 O2A        -60.3310   -13.2700    55.7710 O.co2        1 ATP1405  -1.0000
    12 O3A        -62.7470   -13.9460    55.5600 O.3          1 ATP1405   0.0000
    13 O5'        -62.1190   -12.0840    57.1340 O.3          1 ATP1405   0.0000
    14 C5'        -62.4650   -11.0290    56.2400 C.3          1 ATP1405   0.0000
    15 C4'        -62.8050    -9.7800    57.0440 C.3          1 ATP1405   0.0000
    16 O4'        -63.9540   -10.0180    57.8600 O.3          1 ATP1405   0.0000
    17 C3'        -61.6660    -9.3910    57.9710 C.3          1 ATP1405   0.0000
    18 O3'        -61.0700    -8.1650    57.5370 O.3          1 ATP1405   0.0000
    19 C2'        -62.2860    -9.2050    59.3410 C.3          1 ATP1405   0.0000
    20 O2'        -62.0630    -7.8690    59.7970 O.3          1 ATP1405   0.0000
    21 C1'        -63.7730    -9.4640    59.1640 C.3          1 ATP1405   0.0000
    22 N9         -64.2340   -10.4340    60.1860 N.pl3        1 ATP1405   0.0000
    23 C8         -64.1040   -11.7710    60.1090 C.2          1 ATP1405   0.0000
    24 N7         -64.6260   -12.3800    61.2040 N.2          1 ATP1405   0.0000
    25 C5         -65.1050   -11.4150    62.0100 C.ar         1 ATP1405   0.0000
    26 C6         -65.7840   -11.3650    63.3260 C.ar         1 ATP1405   0.0000
    27 N6         -66.0610   -12.4970    64.0150 N.pl3        1 ATP1405   0.0000
    28 N1         -66.1160   -10.1520    63.8140 N.ar         1 ATP1405   0.0000
    29 C2         -65.8460    -9.0190    63.1400 C.ar         1 ATP1405   0.0000
    30 N3         -65.2330    -8.9900    61.9440 N.ar         1 ATP1405   0.0000
    31 C4         -64.8430   -10.1350    61.3360 C.ar         1 ATP1405   0.0000
    32 H5'1       -63.2571   -11.3005    55.6933 H            1 ATP1405   0.0000
    33 H5'2       -61.6924   -10.8369    55.6348 H            1 ATP1405   0.0000
    34 H4'        -62.9947    -9.0242    56.4173 H            1 ATP1405   0.0000
    35 H3'        -60.9797   -10.1178    57.9985 H            1 ATP1405   0.0000
    36 H5         -60.1041    -8.3192    57.3290 H            1 ATP1405   0.0000
    37 H2'        -61.8962    -9.8602    59.9881 H            1 ATP1405   0.0000
    38 H7         -61.5478    -7.3624    59.1057 H            1 ATP1405   0.0000
    39 H1'        -64.2833    -8.6081    59.2476 H            1 ATP1405   0.0000
    40 H9         -63.6778   -12.2537    59.3439 H            1 ATP1405   0.0000
    41 H10        -66.5199   -12.4429    64.9018 H            1 ATP1405   0.0000
    42 H11        -65.8067   -13.3872    63.6371 H            1 ATP1405   0.0000
    43 H12        -66.1168    -8.1491    63.5523 H            1 ATP1405   0.0000
@<TRIPOS>BOND
     1    1    2      ar
     2    1    3      ar
     3    1    4      ar
     4    1    8       1
     5    5    6      ar
     6    5    7      ar
     7    5    8       1
     8    5   12       1
     9    9   10      ar
    10    9   11      ar
    11    9   12       1
    12    9   13       1
    13   13   14       1
    14   14   15       1
    15   15   16       1
    16   15   17       1
    17   16   21       1
    18   17   18       1
    19   17   19       1
    20   19   20       1
    21   19   21       1
    22   21   22       1
    23   22   23       1
    24   22   31       1
    25   23   24       2
    26   24   25       1
    27   25   26      ar
    28   25   31      ar
    29   26   27       1
    30   26   28      ar
    31   28   29      ar
    32   29   30      ar
    33   30   31      ar
    34   29   43       1
    35   27   42       1
    36   27   41       1
    37   23   40       1
    38   14   32       1
    39   14   33       1
    40   15   34       1
    41   17   35       1
    42   18   36       1
    43   19   37       1
    44   20   38       1
    45   21   39       1
@<TRIPOS>SUBSTRUCTURE
     1 ATP1405     1 GROUP             4 A     ATP     0 **** ATP A1405
