@<TRIPOS>MOLECULE
3c3x_NAP_1_ligand
   73    77     1     0     0
SMALL
NO_CHARGES


@<TRIPOS>ATOM
     1 PA          46.4090    32.0540    52.9520 P.3          1 NAP401   0.0000
     2 O1A         47.2770    32.8350    52.0400 O.co2        1 NAP401   0.0000
     3 O2A         45.2560    32.6900    53.6230 O.co2        1 NAP401  -1.0000
     4 O5B         47.4350    31.3740    53.9710 O.3          1 NAP401   0.0000
     5 C5B         46.9890    30.3290    54.8460 C.3          1 NAP401   0.0000
     6 C4B         47.8650    30.3940    56.0650 C.3          1 NAP401   0.0000
     7 O4B         49.3280    30.0210    55.9160 O.3          1 NAP401   0.0000
     8 C3B         48.1340    31.7500    56.7180 C.3          1 NAP401   0.0000
     9 O3B         46.9640    32.2550    57.3360 O.3          1 NAP401   0.0000
    10 C2B         49.3050    31.5270    57.7050 C.3          1 NAP401   0.0000
    11 O2B         48.8320    31.1680    59.0070 O.3          1 NAP401   0.0000
    12 C1B         50.0860    30.3850    57.0650 C.3          1 NAP401   0.0000
    13 N9A         51.4060    30.7990    56.5830 N.pl3        1 NAP401   0.0000
    14 C8A         51.6770    31.9350    55.8200 C.2          1 NAP401   0.0000
    15 N7A         52.9470    32.0740    55.5210 N.2          1 NAP401   0.0000
    16 C5A         53.5380    31.0000    56.1000 C.ar         1 NAP401   0.0000
    17 C6A         54.8910    30.5850    56.1410 C.ar         1 NAP401   0.0000
    18 N6A         55.8520    31.2980    55.5350 N.pl3        1 NAP401   0.0000
    19 N1A         55.1770    29.4240    56.8240 N.ar         1 NAP401   0.0000
    20 C2A         54.1800    28.7110    57.4340 C.ar         1 NAP401   0.0000
    21 N3A         52.8560    29.0240    57.4550 N.ar         1 NAP401   0.0000
    22 C4A         52.6060    30.1890    56.7660 C.ar         1 NAP401   0.0000
    23 O3          45.9350    30.7330    52.1190 O.3          1 NAP401   0.0000
    24 PN          44.6680    30.7630    51.1540 P.3          1 NAP401   0.0000
    25 O1N         44.6660    32.0220    50.3530 O.co2        1 NAP401   0.0000
    26 O2N         43.4900    30.5070    52.0460 O.co2        1 NAP401  -1.0000
    27 O5D         44.8050    29.4950    50.2060 O.3          1 NAP401   0.0000
    28 C5D         44.8620    28.1520    50.7440 C.3          1 NAP401   0.0000
    29 C4D         44.5510    27.1750    49.6440 C.3          1 NAP401   0.0000
    30 O4D         43.3370    27.6290    48.9790 O.3          1 NAP401   0.0000
    31 C3D         45.6890    27.0390    48.6050 C.3          1 NAP401   0.0000
    32 O3D         45.9020    25.6980    48.2250 O.3          1 NAP401   0.0000
    33 C2D         45.1790    27.9510    47.5170 C.3          1 NAP401   0.0000
    34 O2D         45.7440    27.5780    46.2660 O.3          1 NAP401   0.0000
    35 C1D         43.6810    27.8110    47.5900 C.3          1 NAP401   0.0000
    36 N1N         42.9640    28.9630    46.9560 N.ar         1 NAP401   1.0000
    37 C2N         41.9440    28.6270    46.0790 C.ar         1 NAP401   0.0000
    38 C3N         41.1240    29.6060    45.5220 C.ar         1 NAP401   0.0000
    39 C7N         39.9750    29.2300    44.5960 C.2          1 NAP401   0.0000
    40 O7N         39.2900    30.1200    44.0640 O.2          1 NAP401   0.0000
    41 N7N         39.7340    27.9130    44.4040 N.am         1 NAP401   0.0000
    42 C4N         41.3780    30.9870    45.8420 C.ar         1 NAP401   0.0000
    43 C5N         42.4270    31.3230    46.7380 C.ar         1 NAP401   0.0000
    44 C6N         43.2060    30.3060    47.3160 C.ar         1 NAP401   0.0000
    45 P2B         49.4730    31.6400    60.4270 P.3          1 NAP401   0.0000
    46 O1X         49.7090    33.1360    60.3870 O.co2        1 NAP401   0.0000
    47 O2X         48.3960    31.1530    61.3720 O.co2        1 NAP401  -1.0000
    48 O3X         50.7680    30.8660    60.6000 O.co2        1 NAP401  -1.0000
    49 H5B1        47.0838    29.4395    54.3989 H            1 NAP401   0.0000
    50 H5B2        46.0326    30.4745    55.0992 H            1 NAP401   0.0000
    51 H4B         47.4666    29.7947    56.7593 H            1 NAP401   0.0000
    52 H3B         48.4276    32.3940    56.0116 H            1 NAP401   0.0000
    53 H5          46.9256    31.9402    58.2844 H            1 NAP401   0.0000
    54 H2B         49.8737    32.3478    57.7579 H            1 NAP401   0.0000
    55 H1B         50.1655    29.6132    57.6958 H            1 NAP401   0.0000
    56 H8A         50.9714    32.5811    55.5290 H            1 NAP401   0.0000
    57 H6A1        56.8027    30.9903    55.5739 H            1 NAP401   0.0000
    58 H6A2        55.6178    32.1372    55.0443 H            1 NAP401   0.0000
    59 H2A         54.4523    27.8761    57.9123 H            1 NAP401   0.0000
    60 H5D1        44.1905    28.0556    51.4787 H            1 NAP401   0.0000
    61 H5D2        45.7777    27.9727    51.1036 H            1 NAP401   0.0000
    62 H4D         44.3783    26.2778    50.0505 H            1 NAP401   0.0000
    63 H3D         46.5338    27.4152    48.9856 H            1 NAP401   0.0000
    64 H16         46.1490    25.1586    49.0300 H            1 NAP401   0.0000
    65 H2D         45.4346    28.8944    47.7282 H            1 NAP401   0.0000
    66 H18         45.1533    26.9050    45.8209 H            1 NAP401   0.0000
    67 H1D         43.4246    26.9794    47.0973 H            1 NAP401   0.0000
    68 H2N         41.7946    27.6669    45.8426 H            1 NAP401   0.0000
    69 H7N1        38.9887    27.6234    43.8034 H            1 NAP401   0.0000
    70 H7N2        40.3011    27.2289    44.8626 H            1 NAP401   0.0000
    71 H4N         40.8170    31.7074    45.4342 H            1 NAP401   0.0000
    72 H5N         42.6111    32.2811    46.9573 H            1 NAP401   0.0000
    73 H6N         43.9237    30.5314    47.9749 H            1 NAP401   0.0000
@<TRIPOS>BOND
     1    1    2      ar
     2    1    3      ar
     3    1    4       1
     4    1   23       1
     5    4    5       1
     6    5    6       1
     7    6    7       1
     8    6    8       1
     9    7   12       1
    10    8    9       1
    11    8   10       1
    12   10   11       1
    13   10   12       1
    14   11   45       1
    15   12   13       1
    16   13   14       1
    17   13   22       1
    18   14   15       2
    19   15   16       1
    20   16   17      ar
    21   16   22      ar
    22   17   18       1
    23   17   19      ar
    24   19   20      ar
    25   20   21      ar
    26   21   22      ar
    27   23   24       1
    28   24   25      ar
    29   24   26      ar
    30   24   27       1
    31   27   28       1
    32   28   29       1
    33   29   30       1
    34   29   31       1
    35   30   35       1
    36   31   32       1
    37   31   33       1
    38   33   34       1
    39   33   35       1
    40   35   36       1
    41   36   37      ar
    42   36   44      ar
    43   37   38      ar
    44   38   39       1
    45   38   42      ar
    46   39   40       2
    47   39   41      am
    48   42   43      ar
    49   43   44      ar
    50   45   46      ar
    51   45   47      ar
    52   45   48      ar
    53   43   72       1
    54    5   49       1
    55    5   50       1
    56    6   51       1
    57    8   52       1
    58    9   53       1
    59   10   54       1
    60   12   55       1
    61   14   56       1
    62   18   57       1
    63   18   58       1
    64   20   59       1
    65   44   73       1
    66   28   60       1
    67   28   61       1
    68   29   62       1
    69   31   63       1
    70   32   64       1
    71   33   65       1
    72   34   66       1
    73   35   67       1
    74   37   68       1
    75   41   69       1
    76   41   70       1
    77   42   71       1
@<TRIPOS>SUBSTRUCTURE
     1 NAP401      1 GROUP             4 A     NAP     0 **** NAP A 401
