@<TRIPOS>MOLECULE
2dcm_GA0_1_ligand
   36    36     1     0     0
SMALL
NO_CHARGES


@<TRIPOS>ATOM
     1 N1          -9.8950    48.5040    64.6570 N.4          1 GA0801   1.0000
     2 CA1         -9.2570    47.7390    65.7010 C.3          1 GA0801   0.0000
     3 C1          -8.7700    46.4400    65.1000 C.2          1 GA0801   0.0000
     4 O1          -9.5610    45.6570    64.5480 O.2          1 GA0801   0.0000
     5 N2          -7.4610    46.1970    65.1900 N.am         1 GA0801   0.0000
     6 CA2         -6.8910    44.9690    64.6260 C.3          1 GA0801   0.0000
     7 CB2         -5.4870    45.2240    63.9900 C.3          1 GA0801   0.0000
     8 C2          -6.8080    43.9000    65.7100 C.2          1 GA0801   0.0000
     9 O2          -6.5270    44.2290    66.8910 O.2          1 GA0801   0.0000
    10 N3          -7.0580    42.5910    65.3200 N.am         1 GA0801   0.0000
    11 CD3         -7.4070    42.1070    63.9380 C.3          1 GA0801   0.0000
    12 CA3         -7.0150    41.4310    66.2540 C.3          1 GA0801   0.0000
    13 CB3         -7.2990    40.2290    65.3060 C.3          1 GA0801   0.0000
    14 CG3         -8.1580    40.8150    64.2170 C.3          1 GA0801   0.0000
    15 C3          -5.6230    41.3170    67.0060 C.2          1 GA0801   0.0000
    16 O3          -4.5745    41.4651    66.3325 O.2          1 GA0801   0.0000
    17 NN          -5.6039    41.1129    68.2082 N.am         1 GA0801   0.0000
    18 H1         -10.8679    48.2753    64.6232 H            1 GA0801   0.0000
    19 H2          -9.7884    49.4801    64.8464 H            1 GA0801   0.0000
    20 HA11        -9.9129    47.5496    66.4317 H            1 GA0801   0.0000
    21 HA12        -8.4831    48.2519    66.0725 H            1 GA0801   0.0000
    22 H5          -6.8640    46.8574    65.6456 H            1 GA0801   0.0000
    23 HA2         -7.5047    44.6400    63.9083 H            1 GA0801   0.0000
    24 HB21        -5.1297    44.3679    63.6166 H            1 GA0801   0.0000
    25 HB22        -5.5709    45.8983    63.2563 H            1 GA0801   0.0000
    26 HB23        -4.8617    45.5691    64.6899 H            1 GA0801   0.0000
    27 HD31        -6.5835    41.9360    63.3970 H            1 GA0801   0.0000
    28 HD32        -7.9882    42.7663    63.4610 H            1 GA0801   0.0000
    29 HA3         -7.7529    41.5119    66.9240 H            1 GA0801   0.0000
    30 HB31        -7.7864    39.5024    65.7903 H            1 GA0801   0.0000
    31 HB32        -6.4472    39.8652    64.9291 H            1 GA0801   0.0000
    32 HG31        -8.1873    40.2235    63.4112 H            1 GA0801   0.0000
    33 HG32        -9.0895    40.9907    64.5356 H            1 GA0801   0.0000
    34 HN1         -4.7314    41.0770    68.6954 H            1 GA0801   0.0000
    35 HN2         -6.4608    40.9816    68.7067 H            1 GA0801   0.0000
    36 H19         -9.4708    48.2868    63.7779 H            1 GA0801   0.0000
@<TRIPOS>BOND
     1    1    2       1
     2    2    3       1
     3    3    4       2
     4    3    5      am
     5    5    6       1
     6    6    7       1
     7    6    8       1
     8    8    9       2
     9    8   10      am
    10   10   11       1
    11   10   12       1
    12   11   14       1
    13   12   13       1
    14   12   15       1
    15   13   14       1
    16   15   16       2
    17   15   17      am
    18    1   18       1
    19    1   19       1
    20    2   20       1
    21    2   21       1
    22    5   22       1
    23    6   23       1
    24    7   24       1
    25    7   25       1
    26    7   26       1
    27   11   27       1
    28   11   28       1
    29   12   29       1
    30   13   30       1
    31   13   31       1
    32   14   32       1
    33   14   33       1
    34   17   34       1
    35   17   35       1
    36    1   36       1
@<TRIPOS>SUBSTRUCTURE
     1 GA0801      1 GROUP             4 A     GA0     0 **** GA0 A 801
