@<TRIPOS>MOLECULE
3irn_1CY_3_ligand
   31    32     1     0     0
SMALL
NO_CHARGES


@<TRIPOS>ATOM
     1 N1          12.5750   -23.0710   -15.6850 N.2          1 1CY603   0.0000
     2 C2          12.3110   -23.3610   -14.4790 C.2          1 1CY603   0.0000
     3 N3          11.6130   -24.3410   -14.0780 N.2          1 1CY603   0.0000
     4 C4          11.0780   -25.1920   -14.8600 C.2          1 1CY603   0.0000
     5 N5          11.2500   -25.0820   -16.2340 N.pl3        1 1CY603   0.0000
     6 C6          12.0330   -23.9330   -16.7810 C.3          1 1CY603   0.0000
     7 N7          12.8270   -22.5500   -13.5410 N.pl3        1 1CY603   0.0000
     8 N8          10.4010   -26.1850   -14.2650 N.pl3        1 1CY603   0.0000
     9 C9          13.2410   -24.3670   -17.6450 C.3          1 1CY603   0.0000
    10 C10         11.1280   -22.9870   -17.5990 C.3          1 1CY603   0.0000
    11 C11         10.7130   -26.1370   -16.9950 C.ar         1 1CY603   0.0000
    12 C12         11.5010   -27.2490   -17.2670 C.ar         1 1CY603   0.0000
    13 C13         11.0210   -28.2980   -18.0000 C.ar         1 1CY603   0.0000
    14 C14          9.7480   -28.2650   -18.4770 C.ar         1 1CY603   0.0000
    15 C15          8.9410   -27.1680   -18.2220 C.ar         1 1CY603   0.0000
    16 C16          9.4230   -26.1090   -17.4820 C.ar         1 1CY603   0.0000
    17 CL17         9.1560   -29.6030   -19.3980 Cl           1 1CY603   0.0000
    18 H1          12.6518   -22.7300   -12.5731 H            1 1CY603   0.0000
    19 H2          13.3864   -21.7661   -13.8105 H            1 1CY603   0.0000
    20 H3           9.9555   -26.8884   -14.8189 H            1 1CY603   0.0000
    21 H4          10.3416   -26.2220   -13.2675 H            1 1CY603   0.0000
    22 H5          12.9233   -24.9483   -18.3941 H            1 1CY603   0.0000
    23 H6          13.6911   -23.5565   -18.0198 H            1 1CY603   0.0000
    24 H7          13.8893   -24.8767   -17.0795 H            1 1CY603   0.0000
    25 H8          10.7212   -23.4910   -18.3609 H            1 1CY603   0.0000
    26 H9          10.4026   -22.6287   -17.0112 H            1 1CY603   0.0000
    27 H10         11.6739   -22.2284   -17.9548 H            1 1CY603   0.0000
    28 H11         12.4381   -27.2823   -16.9194 H            1 1CY603   0.0000
    29 H12         11.6049   -29.0884   -18.1852 H            1 1CY603   0.0000
    30 H13          8.0060   -27.1442   -18.5758 H            1 1CY603   0.0000
    31 H14          8.8367   -25.3200   -17.2983 H            1 1CY603   0.0000
@<TRIPOS>BOND
     1    1    2       2
     2    1    6       1
     3    2    3       1
     4    2    7       1
     5    3    4       2
     6    4    5       1
     7    4    8       1
     8    5    6       1
     9    5   11       1
    10    6    9       1
    11    6   10       1
    12   11   12      ar
    13   11   16      ar
    14   12   13      ar
    15   13   14      ar
    16   14   15      ar
    17   14   17       1
    18   15   16      ar
    19    7   18       1
    20    7   19       1
    21    8   20       1
    22    8   21       1
    23    9   22       1
    24    9   23       1
    25    9   24       1
    26   10   25       1
    27   10   26       1
    28   10   27       1
    29   12   28       1
    30   13   29       1
    31   15   30       1
    32   16   31       1
@<TRIPOS>SUBSTRUCTURE
     1 1CY603      1 GROUP             4 C     1CY     0 **** 1CY C 603
