@<TRIPOS>MOLECULE
5c8d_5AD_3_ligand
   31    33     1     0     0
SMALL
NO_CHARGES


@<TRIPOS>ATOM
     1 N1         -28.8940   -21.0520    32.7730 N.ar         1 5AD301   0.0000
     2 C2         -28.8700   -20.1120    31.8230 C.ar         1 5AD301   0.0000
     3 N3         -28.6120   -18.8070    31.9420 N.ar         1 5AD301   0.0000
     4 C4         -28.3550   -18.4810    33.2160 C.ar         1 5AD301   0.0000
     5 N9         -28.0860   -17.2320    33.7210 N.pl3        1 5AD301   0.0000
     6 C8         -27.8880   -17.4100    35.0650 C.2          1 5AD301   0.0000
     7 N7         -28.0240   -18.6510    35.4660 N.2          1 5AD301   0.0000
     8 C5         -28.3290   -19.3400    34.3000 C.ar         1 5AD301   0.0000
     9 C6         -28.6240   -20.6950    34.0490 C.ar         1 5AD301   0.0000
    10 N6         -28.6700   -21.6310    34.9980 N.pl3        1 5AD301   0.0000
    11 C1'        -28.0990   -15.9650    32.9940 C.3          1 5AD301   0.0000
    12 C2'        -28.9380   -14.8670    33.6710 C.3          1 5AD301   0.0000
    13 C3'        -27.9880   -13.6640    33.6950 C.3          1 5AD301   0.0000
    14 C4'        -26.8930   -14.0630    32.7180 C.3          1 5AD301   0.0000
    15 C5'        -25.5470   -13.4170    32.9430 C.3          1 5AD301   0.0000
    16 O4'        -26.7730   -15.4840    32.8870 O.3          1 5AD301   0.0000
    17 O2'        -30.1170   -14.5800    32.9270 O.3          1 5AD301   0.0000
    18 O3'        -28.6290   -12.4870    33.2240 O.3          1 5AD301   0.0000
    19 H1         -29.0729   -20.4292    30.8966 H            1 5AD301   0.0000
    20 H2         -27.6599   -16.6596    35.6854 H            1 5AD301   0.0000
    21 H3         -28.4739   -21.3895    35.9484 H            1 5AD301   0.0000
    22 H4         -28.9006   -22.5743    34.7592 H            1 5AD301   0.0000
    23 H1'        -28.4589   -16.1247    32.0748 H            1 5AD301   0.0000
    24 H2'        -29.1753   -15.1388    34.6036 H            1 5AD301   0.0000
    25 H3'        -27.6139   -13.5236    34.6117 H            1 5AD301   0.0000
    26 H4'        -27.1984   -13.8683    31.7859 H            1 5AD301   0.0000
    27 H5'1       -24.9011   -13.7432    32.2527 H            1 5AD301   0.0000
    28 H5'2       -25.6379   -12.4237    32.8715 H            1 5AD301   0.0000
    29 H5'3       -25.2105   -13.6562    33.8538 H            1 5AD301   0.0000
    30 H12        -29.9466   -14.7452    31.9556 H            1 5AD301   0.0000
    31 H13        -27.9848   -11.7226    33.2520 H            1 5AD301   0.0000
@<TRIPOS>BOND
     1    1    2      ar
     2    1    9      ar
     3    2    3      ar
     4    3    4      ar
     5    4    5       1
     6    4    8      ar
     7    5    6       1
     8    5   11       1
     9    6    7       2
    10    7    8       1
    11    8    9      ar
    12    9   10       1
    13   11   12       1
    14   11   16       1
    15   12   13       1
    16   12   17       1
    17   13   14       1
    18   13   18       1
    19   14   15       1
    20   14   16       1
    21    2   19       1
    22    6   20       1
    23   10   21       1
    24   10   22       1
    25   11   23       1
    26   12   24       1
    27   13   25       1
    28   14   26       1
    29   15   27       1
    30   15   28       1
    31   15   29       1
    32   17   30       1
    33   18   31       1
@<TRIPOS>SUBSTRUCTURE
     1 5AD301      1 GROUP             4 C     5AD     0 **** 5AD C 301
