@<TRIPOS>MOLECULE
1f3l_SAH_1_ligand
   46    48     1     0     0
SMALL
NO_CHARGES


@<TRIPOS>ATOM
     1 N           62.9170    49.3240   220.5570 N.4          1 SAH529   1.0000
     2 CA          63.3820    50.4310   221.3750 C.3          1 SAH529   0.0000
     3 CB          64.8320    50.7690   221.0100 C.3          1 SAH529   0.0000
     4 CG          65.0760    51.0450   219.5210 C.3          1 SAH529   0.0000
     5 SD          66.7290    51.8050   219.3570 S.3          1 SAH529   0.0000
     6 C           62.4930    51.6540   221.1820 C.2          1 SAH529   0.0000
     7 O           61.5850    51.6300   220.2430 O.co2        1 SAH529   0.0000
     8 OXT         62.3590    52.4840   222.1760 O.co2        1 SAH529  -1.0000
     9 C5'         67.7880    50.6410   218.4550 C.3          1 SAH529   0.0000
    10 C4'         68.1270    49.5530   219.4400 C.3          1 SAH529   0.0000
    11 O4'         68.4620    48.3410   218.7090 O.3          1 SAH529   0.0000
    12 C3'         69.2920    49.8210   220.3960 C.3          1 SAH529   0.0000
    13 O3'         68.9830    49.3310   221.7040 O.3          1 SAH529   0.0000
    14 C2'         70.4380    49.0230   219.7690 C.3          1 SAH529   0.0000
    15 O2'         71.4120    48.5920   220.7150 O.3          1 SAH529   0.0000
    16 C1'         69.6900    47.8330   219.1730 C.3          1 SAH529   0.0000
    17 N9          70.3660    47.1730   218.0600 N.pl3        1 SAH529   0.0000
    18 C8          70.9620    47.7380   216.9550 C.2          1 SAH529   0.0000
    19 N7          71.5280    46.8640   216.1560 N.2          1 SAH529   0.0000
    20 C5          71.2820    45.6420   216.7700 C.ar         1 SAH529   0.0000
    21 C6          71.6440    44.3220   216.4330 C.ar         1 SAH529   0.0000
    22 N6          72.3710    44.0030   215.3650 N.pl3        1 SAH529   0.0000
    23 N1          71.2310    43.3280   217.2510 N.ar         1 SAH529   0.0000
    24 C2          70.5210    43.6510   218.3390 C.ar         1 SAH529   0.0000
    25 N3          70.1350    44.8520   218.7710 N.ar         1 SAH529   0.0000
    26 C4          70.5550    45.8160   217.9330 C.ar         1 SAH529   0.0000
    27 H1          62.2365    48.7965   221.0656 H            1 SAH529   0.0000
    28 H2          62.5044    49.6796   219.7184 H            1 SAH529   0.0000
    29 HA          63.3479    50.1571   222.3362 H            1 SAH529   0.0000
    30 HB1         65.4084    49.9982   221.2815 H            1 SAH529   0.0000
    31 HB2         65.1001    51.5833   221.5248 H            1 SAH529   0.0000
    32 HG1         64.3780    51.6704   219.1722 H            1 SAH529   0.0000
    33 HG2         65.0430    50.1882   219.0064 H            1 SAH529   0.0000
    34 H5'1        68.6198    51.0981   218.1401 H            1 SAH529   0.0000
    35 H5'2        67.2990    50.2609   217.6699 H            1 SAH529   0.0000
    36 H4'         67.3121    49.3679   219.9893 H            1 SAH529   0.0000
    37 H3'         69.5116    50.7962   220.4243 H            1 SAH529   0.0000
    38 H12         68.8164    48.3459   221.6602 H            1 SAH529   0.0000
    39 H2'         70.8734    49.5558   219.0434 H            1 SAH529   0.0000
    40 H14         71.1569    47.6926   221.0699 H            1 SAH529   0.0000
    41 H1'         69.5152    47.1622   219.8937 H            1 SAH529   0.0000
    42 H16         70.9635    48.7222   216.7777 H            1 SAH529   0.0000
    43 H17         72.5949    43.0461   215.1802 H            1 SAH529   0.0000
    44 H18         72.6934    44.7202   214.7473 H            1 SAH529   0.0000
    45 H19         70.2394    42.8801   218.9104 H            1 SAH529   0.0000
    46 H20         63.6900    48.7340   220.3240 H            1 SAH529   0.0000
@<TRIPOS>BOND
     1    1    2       1
     2    2    3       1
     3    2    6       1
     4    3    4       1
     5    4    5       1
     6    5    9       1
     7    6    7      ar
     8    6    8      ar
     9    9   10       1
    10   10   11       1
    11   10   12       1
    12   11   16       1
    13   12   13       1
    14   12   14       1
    15   14   15       1
    16   14   16       1
    17   16   17       1
    18   17   18       1
    19   17   26       1
    20   18   19       2
    21   19   20       1
    22   20   21      ar
    23   20   26      ar
    24   21   22       1
    25   21   23      ar
    26   23   24      ar
    27   24   25      ar
    28   25   26      ar
    29    1   27       1
    30    1   28       1
    31    2   29       1
    32    3   30       1
    33    3   31       1
    34    4   32       1
    35    4   33       1
    36    1   46       1
    37    9   34       1
    38    9   35       1
    39   10   36       1
    40   12   37       1
    41   13   38       1
    42   14   39       1
    43   15   40       1
    44   16   41       1
    45   18   42       1
    46   22   43       1
    47   22   44       1
    48   24   45       1
@<TRIPOS>SUBSTRUCTURE
     1 SAH529      1 GROUP             4 A     SAH     0 **** SAH A 529
