@<TRIPOS>MOLECULE
1cw3_NAD_6_ligand
   70    74     1     0     0
SMALL
NO_CHARGES


@<TRIPOS>ATOM
     1 PA          67.0540    57.1940   -23.8540 P.3          1 NAD6502   0.0000
     2 O1A         66.9430    57.7110   -22.4870 O.co2        1 NAD6502   0.0000
     3 O2A         67.9970    57.8070   -24.7950 O.co2        1 NAD6502  -1.0000
     4 O5B         65.6280    57.3310   -24.6090 O.3          1 NAD6502   0.0000
     5 C5B         64.4480    56.6620   -24.1090 C.3          1 NAD6502   0.0000
     6 C4B         63.1510    57.3240   -24.5700 C.3          1 NAD6502   0.0000
     7 O4B         63.2280    58.7640   -24.3890 O.3          1 NAD6502   0.0000
     8 C3B         62.8440    57.1180   -26.0340 C.3          1 NAD6502   0.0000
     9 O3B         61.4450    57.0890   -26.3150 O.3          1 NAD6502   0.0000
    10 C2B         63.4810    58.3290   -26.6770 C.3          1 NAD6502   0.0000
    11 O2B         62.8960    58.5990   -27.9430 O.3          1 NAD6502   0.0000
    12 C1B         63.1940    59.4180   -25.6750 C.3          1 NAD6502   0.0000
    13 N9A         64.1360    60.5670   -25.7610 N.pl3        1 NAD6502   0.0000
    14 C8A         65.3890    60.5980   -26.2510 C.2          1 NAD6502   0.0000
    15 N7A         65.9090    61.8280   -26.1860 N.2          1 NAD6502   0.0000
    16 C5A         64.9530    62.5590   -25.6270 C.ar         1 NAD6502   0.0000
    17 C6A         64.9630    63.9470   -25.4390 C.ar         1 NAD6502   0.0000
    18 N6A         66.0070    64.7410   -25.6650 N.pl3        1 NAD6502   0.0000
    19 N1A         63.8210    64.4780   -24.9690 N.ar         1 NAD6502   0.0000
    20 C2A         62.7520    63.7340   -24.6920 C.ar         1 NAD6502   0.0000
    21 N3A         62.7430    62.4190   -24.8860 N.ar         1 NAD6502   0.0000
    22 C4A         63.8380    61.7950   -25.3600 C.ar         1 NAD6502   0.0000
    23 O3          67.3650    55.6320   -23.8340 O.3          1 NAD6502   0.0000
    24 PN          67.7240    54.7470   -25.1160 P.3          1 NAD6502   0.0000
    25 O1N         66.7810    55.1900   -26.1710 O.co2        1 NAD6502   0.0000
    26 O2N         67.6710    53.3100   -24.8640 O.co2        1 NAD6502  -1.0000
    27 O5D         69.2960    55.1870   -25.3000 O.3          1 NAD6502   0.0000
    28 C5D         70.4470    54.3250   -25.0960 C.3          1 NAD6502   0.0000
    29 C4D         71.0690    54.3040   -23.6880 C.3          1 NAD6502   0.0000
    30 O4D         70.1920    54.6540   -22.5840 O.3          1 NAD6502   0.0000
    31 C3D         71.5500    52.9060   -23.3500 C.3          1 NAD6502   0.0000
    32 O3D         72.8690    52.6360   -23.8370 O.3          1 NAD6502   0.0000
    33 C2D         71.5170    52.8990   -21.8280 C.3          1 NAD6502   0.0000
    34 O2D         72.7370    53.4500   -21.3030 O.3          1 NAD6502   0.0000
    35 C1D         70.2940    53.7450   -21.4460 C.3          1 NAD6502   0.0000
    36 N1N         68.9870    53.0470   -21.2470 N.ar         1 NAD6502   1.0000
    37 C2N         68.3070    52.7880   -20.0250 C.ar         1 NAD6502   0.0000
    38 C3N         67.0060    52.2400   -20.0780 C.ar         1 NAD6502   0.0000
    39 C7N         66.1270    51.8340   -18.8870 C.2          1 NAD6502   0.0000
    40 O7N         65.2100    51.0080   -18.9980 O.2          1 NAD6502   0.0000
    41 N7N         66.3820    52.4900   -17.7770 N.am         1 NAD6502   0.0000
    42 C4N         66.3900    51.9850   -21.2860 C.ar         1 NAD6502   0.0000
    43 C5N         67.0400    52.2010   -22.4720 C.ar         1 NAD6502   0.0000
    44 C6N         68.3110    52.7070   -22.4150 C.ar         1 NAD6502   0.0000
    45 H5B1        64.4742    56.6727   -23.1094 H            1 NAD6502   0.0000
    46 H5B2        64.4561    55.7158   -24.4325 H            1 NAD6502   0.0000
    47 H4B         62.3921    56.9676   -24.0250 H            1 NAD6502   0.0000
    48 H3B         63.2805    56.2812   -26.3645 H            1 NAD6502   0.0000
    49 H5          61.0187    56.3398   -25.8082 H            1 NAD6502   0.0000
    50 H2B         64.4674    58.1943   -26.7713 H            1 NAD6502   0.0000
    51 H7          63.0252    57.8109   -28.5448 H            1 NAD6502   0.0000
    52 H1B         62.2665    59.7569   -25.8331 H            1 NAD6502   0.0000
    53 H8A         65.8703    59.8017   -26.6174 H            1 NAD6502   0.0000
    54 H6A1        65.9306    65.7251   -25.5049 H            1 NAD6502   0.0000
    55 H6A2        66.8678    64.3534   -25.9949 H            1 NAD6502   0.0000
    56 H2A         61.9328    64.1770   -24.3277 H            1 NAD6502   0.0000
    57 H5D1        71.1586    54.6170   -25.7350 H            1 NAD6502   0.0000
    58 H5D2        70.1657    53.3906   -25.3146 H            1 NAD6502   0.0000
    59 H4D         71.8551    54.9220   -23.6782 H            1 NAD6502   0.0000
    60 H3D         70.9082    52.2281   -23.7086 H            1 NAD6502   0.0000
    61 H17         72.8120    52.2524   -24.7587 H            1 NAD6502   0.0000
    62 H2D         71.3981    51.9631   -21.4964 H            1 NAD6502   0.0000
    63 H19         72.7041    53.4404   -20.3036 H            1 NAD6502   0.0000
    64 H1D         70.5083    54.2744   -20.6251 H            1 NAD6502   0.0000
    65 H2N         68.7407    52.9896   -19.1468 H            1 NAD6502   0.0000
    66 H7N1        65.8587    52.2926   -16.9481 H            1 NAD6502   0.0000
    67 H7N2        67.0994    53.1865   -17.7614 H            1 NAD6502   0.0000
    68 H4N         65.4528    51.6365   -21.2957 H            1 NAD6502   0.0000
    69 H5N         66.6023    51.9966   -23.3476 H            1 NAD6502   0.0000
    70 H6N         68.7916    52.8430   -23.2813 H            1 NAD6502   0.0000
@<TRIPOS>BOND
     1    1    2      ar
     2    1    3      ar
     3    1    4       1
     4    1   23       1
     5    4    5       1
     6    5    6       1
     7    6    7       1
     8    6    8       1
     9    7   12       1
    10    8    9       1
    11    8   10       1
    12   10   11       1
    13   10   12       1
    14   12   13       1
    15   13   14       1
    16   13   22       1
    17   14   15       2
    18   15   16       1
    19   16   17      ar
    20   16   22      ar
    21   17   18       1
    22   17   19      ar
    23   19   20      ar
    24   20   21      ar
    25   21   22      ar
    26   23   24       1
    27   24   25      ar
    28   24   26      ar
    29   24   27       1
    30   27   28       1
    31   28   29       1
    32   29   30       1
    33   29   31       1
    34   30   35       1
    35   31   32       1
    36   31   33       1
    37   33   34       1
    38   33   35       1
    39   35   36       1
    40   36   37      ar
    41   36   44      ar
    42   37   38      ar
    43   38   39       1
    44   38   42      ar
    45   39   40       2
    46   39   41      am
    47   42   43      ar
    48   43   44      ar
    49   44   70       1
    50    5   45       1
    51    5   46       1
    52    6   47       1
    53    8   48       1
    54    9   49       1
    55   10   50       1
    56   11   51       1
    57   12   52       1
    58   14   53       1
    59   18   54       1
    60   18   55       1
    61   20   56       1
    62   43   69       1
    63   28   57       1
    64   28   58       1
    65   29   59       1
    66   31   60       1
    67   32   61       1
    68   33   62       1
    69   34   63       1
    70   35   64       1
    71   37   65       1
    72   41   66       1
    73   41   67       1
    74   42   68       1
@<TRIPOS>SUBSTRUCTURE
     1 NAD6502     1 GROUP             4 F     NAD     0 **** NAD F6502
