@<TRIPOS>MOLECULE
3lnv_1ZZ_1_ligand
   71    73     1     0     0
SMALL
NO_CHARGES


@<TRIPOS>ATOM
     1 P           22.1770    29.5960    35.4650 P.3          1 1ZZ589   0.0000
     2 C1           7.9040    31.2460    38.6160 C.3          1 1ZZ589   0.0000
     3 N1          21.4370    35.4550    33.0380 N.pl3        1 1ZZ589   0.0000
     4 O1          19.8340    31.2920    34.1270 O.2          1 1ZZ589   0.0000
     5 C2           8.9530    31.7210    37.6150 C.3          1 1ZZ589   0.0000
     6 N2          19.4100    36.0150    33.7050 N.2          1 1ZZ589   0.0000
     7 O2          20.6220    29.9900    35.9570 O.3          1 1ZZ589   0.0000
     8 C3          10.3190    31.7830    38.2860 C.3          1 1ZZ589   0.0000
     9 N3          21.8350    37.5090    31.5770 N.ar         1 1ZZ589   0.0000
    10 O3          23.0450    29.5420    36.5390 O.co2        1 1ZZ589   0.0000
    11 C4          11.5390    31.5400    37.4210 C.3          1 1ZZ589   0.0000
    12 N4          20.0130    39.0430    31.6120 N.ar         1 1ZZ589   0.0000
    13 O4          22.1180    28.2270    34.7240 O.co2        1 1ZZ589  -1.0000
    14 C5          12.4090    32.7440    37.9150 C.3          1 1ZZ589   0.0000
    15 N5          18.0840    38.6550    32.7690 N.pl3        1 1ZZ589   0.0000
    16 O5          22.7410    30.8290    34.5760 O.3          1 1ZZ589   0.0000
    17 C6          13.4570    33.2920    36.8970 C.3          1 1ZZ589   0.0000
    18 O6          22.6670    33.3110    33.1430 O.3          1 1ZZ589   0.0000
    19 C7          14.6860    34.1200    37.2890 C.3          1 1ZZ589   0.0000
    20 O7          24.7860    35.2910    33.0560 O.3          1 1ZZ589   0.0000
    21 C8          16.1490    33.5980    37.1360 C.3          1 1ZZ589   0.0000
    22 O8          24.7790    34.5420    35.6110 O.3          1 1ZZ589   0.0000
    23 C9          16.5360    33.0760    35.7650 C.3          1 1ZZ589   0.0000
    24 C10         18.0790    32.9230    35.5620 C.3          1 1ZZ589   0.0000
    25 C11         18.6280    31.6060    36.1600 C.3          1 1ZZ589   0.0000
    26 C12         19.9450    31.1570    35.4860 C.2          1 1ZZ589   0.0000
    27 C13         22.8010    32.1470    35.0780 C.3          1 1ZZ589   0.0000
    28 C14         23.3600    33.1010    34.2020 C.3          1 1ZZ589   0.0000
    29 C15         23.7800    34.5190    34.7570 C.3          1 1ZZ589   0.0000
    30 C16         23.8620    35.2770    33.6620 C.3          1 1ZZ589   0.0000
    31 C17         22.6590    34.7790    32.9820 C.3          1 1ZZ589   0.0000
    32 C18         20.3070    35.1670    33.8560 C.2          1 1ZZ589   0.0000
    33 C19         19.9510    37.0370    32.8400 C.ar         1 1ZZ589   0.0000
    34 C20         21.1140    36.6920    32.4610 C.ar         1 1ZZ589   0.0000
    35 C21         21.3050    38.6180    31.1320 C.ar         1 1ZZ589   0.0000
    36 C22         19.3540    38.3040    32.3070 C.ar         1 1ZZ589   0.0000
    37 H1           7.0102    31.2076    38.1692 H            1 1ZZ589   0.0000
    38 H2           8.1494    30.3357    38.9493 H            1 1ZZ589   0.0000
    39 H3           7.8649    31.8834    39.3855 H            1 1ZZ589   0.0000
    40 H4           8.7055    32.6309    37.2820 H            1 1ZZ589   0.0000
    41 H5           8.9901    31.0832    36.8457 H            1 1ZZ589   0.0000
    42 H6          10.3264    31.0962    39.0128 H            1 1ZZ589   0.0000
    43 H7          10.4138    32.6940    38.6873 H            1 1ZZ589   0.0000
    44 H8          11.3285    31.6013    36.4453 H            1 1ZZ589   0.0000
    45 H9          11.9696    30.6584    37.6144 H            1 1ZZ589   0.0000
    46 H10         12.9022    32.4498    38.7337 H            1 1ZZ589   0.0000
    47 H11         11.7897    33.4931    38.1501 H            1 1ZZ589   0.0000
    48 H12         17.5670    38.0191    33.3420 H            1 1ZZ589   0.0000
    49 H13         17.6914    39.5423    32.5269 H            1 1ZZ589   0.0000
    50 H14         12.9405    33.8610    36.2571 H            1 1ZZ589   0.0000
    51 H15         13.8131    32.4900    36.4174 H            1 1ZZ589   0.0000
    52 H16         14.5722    34.3396    38.2579 H            1 1ZZ589   0.0000
    53 H17         14.6356    34.9599    36.7487 H            1 1ZZ589   0.0000
    54 H18         25.5495    35.6065    33.6195 H            1 1ZZ589   0.0000
    55 H19         16.2776    32.8548    37.7925 H            1 1ZZ589   0.0000
    56 H20         16.7666    34.3518    37.3606 H            1 1ZZ589   0.0000
    57 H21         24.9553    35.4853    35.8924 H            1 1ZZ589   0.0000
    58 H22         16.1886    33.7117    35.0757 H            1 1ZZ589   0.0000
    59 H23         16.1105    32.1802    35.6368 H            1 1ZZ589   0.0000
    60 H24         18.5386    33.6925    36.0054 H            1 1ZZ589   0.0000
    61 H25         18.2763    32.9368    34.5818 H            1 1ZZ589   0.0000
    62 H26         17.9433    30.8876    36.0374 H            1 1ZZ589   0.0000
    63 H27         18.7970    31.7424    37.1361 H            1 1ZZ589   0.0000
    64 H28         23.3510    32.1348    35.9131 H            1 1ZZ589   0.0000
    65 H29         21.8693    32.4370    35.2967 H            1 1ZZ589   0.0000
    66 H30         24.2106    32.6875    33.8773 H            1 1ZZ589   0.0000
    67 H31         22.9857    34.8578    35.2612 H            1 1ZZ589   0.0000
    68 H32         23.6761    36.2194    33.9399 H            1 1ZZ589   0.0000
    69 H33         22.9083    34.8825    32.0191 H            1 1ZZ589   0.0000
    70 H34         20.2431    34.3827    34.4731 H            1 1ZZ589   0.0000
    71 H35         21.7953    39.1716    30.4589 H            1 1ZZ589   0.0000
@<TRIPOS>BOND
     1    1    7       1
     2    1   10      ar
     3    1   13      ar
     4    1   16       1
     5    2    5       1
     6    3   31       1
     7    3   32       1
     8    3   34       1
     9    4   26       2
    10    5    8       1
    11    6   32       2
    12    6   33       1
    13    7   26       1
    14    8   11       1
    15    9   34      ar
    16    9   35      ar
    17   11   14       1
    18   12   35      ar
    19   12   36      ar
    20   14   17       1
    21   15   36       1
    22   16   27       1
    23   17   19       1
    24   18   28       1
    25   18   31       1
    26   19   21       1
    27   20   30       1
    28   21   23       1
    29   22   29       1
    30   23   24       1
    31   24   25       1
    32   25   26       1
    33   27   28       1
    34   28   29       1
    35   29   30       1
    36   30   31       1
    37   33   34      ar
    38   33   36      ar
    39    2   37       1
    40    2   38       1
    41    2   39       1
    42    5   40       1
    43    5   41       1
    44    8   42       1
    45    8   43       1
    46   35   71       1
    47   11   44       1
    48   11   45       1
    49   14   46       1
    50   14   47       1
    51   15   48       1
    52   15   49       1
    53   17   50       1
    54   17   51       1
    55   19   52       1
    56   19   53       1
    57   20   54       1
    58   21   55       1
    59   21   56       1
    60   22   57       1
    61   23   58       1
    62   23   59       1
    63   24   60       1
    64   24   61       1
    65   25   62       1
    66   25   63       1
    67   27   64       1
    68   27   65       1
    69   28   66       1
    70   29   67       1
    71   30   68       1
    72   31   69       1
    73   32   70       1
@<TRIPOS>SUBSTRUCTURE
     1 1ZZ589      1 GROUP             4 A     1ZZ     0 **** 1ZZ A 589
