@<TRIPOS>MOLECULE
4o9k_CMK_2_ligand
   60    62     1     0     0
SMALL
NO_CHARGES


@<TRIPOS>ATOM
     1 N1C         11.5380     0.0040     9.6990 N.pl3        1 CMK402   0.0000
     2 C2C         10.4760     0.2640    10.5570 C.2          1 CMK402   0.0000
     3 N3C         10.5400     1.2430    11.4970 N.2          1 CMK402   0.0000
     4 C4C         11.6860     1.9220    11.6300 C.2          1 CMK402   0.0000
     5 C5C         12.8180     1.6360    10.8440 C.2          1 CMK402   0.0000
     6 C6C         12.7190     0.6900     9.8500 C.2          1 CMK402   0.0000
     7 O2C          9.4220    -0.3510    10.4270 O.2          1 CMK402   0.0000
     8 N4C         11.7790     2.8480    12.5900 N.pl3        1 CMK402   0.0000
     9 C1'         11.4670    -1.0120     8.6410 C.3          1 CMK402   0.0000
    10 C2'         11.9500    -0.5140     7.2780 C.3          1 CMK402   0.0000
    11 O2'         10.9410     0.1940     6.6060 O.3          1 CMK402   0.0000
    12 C3'         12.3640    -1.8180     6.6270 C.3          1 CMK402   0.0000
    13 C4'         12.7600    -2.6930     7.7960 C.3          1 CMK402   0.0000
    14 O4'         12.3870    -2.0340     8.9880 O.3          1 CMK402   0.0000
    15 O3'         11.3250    -2.4740     5.8990 O.3          1 CMK402   0.0000
    16 C5'         14.2420    -2.8020     7.9780 C.3          1 CMK402   0.0000
    17 O5'         14.8650    -1.5390     7.9310 O.3          1 CMK402   0.0000
    18 PA          16.1720    -1.3040     6.9630 P.3          1 CMK402   0.0000
    19 O1A         15.7010    -1.5110     5.5700 O.co2        1 CMK402   0.0000
    20 O2A         16.7610     0.0000     7.3940 O.co2        1 CMK402  -1.0000
    21 O6          18.8340    -3.8080     7.8310 O.3          1 CMK402   0.0000
    22 C2          18.2190    -3.0940     6.7590 C.3          1 CMK402   0.0000
    23 O2          17.1430    -2.4590     7.4230 O.3          1 CMK402   0.0000
    24 C3          19.2020    -2.1560     6.1010 C.3          1 CMK402   0.0000
    25 C4          20.6350    -2.7160     6.0100 C.3          1 CMK402   0.0000
    26 O4          21.5790    -1.6440     6.1100 O.3          1 CMK402   0.0000
    27 C5          21.0720    -3.6070     7.1430 C.3          1 CMK402   0.0000
    28 C6          19.9860    -4.6020     7.5000 C.3          1 CMK402   0.0000
    29 C7          20.4190    -5.4750     8.6700 C.3          1 CMK402   0.0000
    30 C1          17.6260    -4.0890     5.7700 C.2          1 CMK402   0.0000
    31 O1X         16.8740    -4.9650     6.1950 O.co2        1 CMK402   0.0000
    32 O1Y         17.8950    -4.0420     4.5720 O.co2        1 CMK402  -1.0000
    33 O5          21.4100    -2.7890     8.2660 O.3          1 CMK402   0.0000
    34 C8          19.6700    -6.7980     8.6450 C.3          1 CMK402   0.0000
    35 O8          19.9620    -7.5840     9.8370 O.3          1 CMK402   0.0000
    36 O7          21.8400    -5.6920     8.5480 O.3          1 CMK402   0.0000
    37 H5C         13.6816     2.1135    11.0057 H            1 CMK402   0.0000
    38 H6C         13.4946     0.5045     9.2467 H            1 CMK402   0.0000
    39 H4C1        12.6269     3.3656    12.7050 H            1 CMK402   0.0000
    40 H4C2        11.0007     3.0230    13.1930 H            1 CMK402   0.0000
    41 H1'         10.5407    -1.3823     8.5714 H            1 CMK402   0.0000
    42 H2'         12.7511     0.0725     7.3977 H            1 CMK402   0.0000
    43 H7          11.2858     0.5060     5.7207 H            1 CMK402   0.0000
    44 H3'         13.1534    -1.6663     6.0322 H            1 CMK402   0.0000
    45 H4'         12.3352    -3.5961     7.7330 H            1 CMK402   0.0000
    46 H10         11.3327    -2.1587     4.9500 H            1 CMK402   0.0000
    47 H5'1        14.6169    -3.3760     7.2500 H            1 CMK402   0.0000
    48 H5'2        14.4298    -3.2236     8.8651 H            1 CMK402   0.0000
    49 H13         19.2287    -1.3071     6.6288 H            1 CMK402   0.0000
    50 H14         18.8803    -1.9623     5.1742 H            1 CMK402   0.0000
    51 H15         20.7565    -3.1928     5.1394 H            1 CMK402   0.0000
    52 H16         21.4281    -0.9962     5.3633 H            1 CMK402   0.0000
    53 H17         21.8869    -4.1114     6.8575 H            1 CMK402   0.0000
    54 H18         19.7824    -5.1772     6.7077 H            1 CMK402   0.0000
    55 H19         20.2272    -4.9999     9.5288 H            1 CMK402   0.0000
    56 H20         21.7021    -3.3700     9.0257 H            1 CMK402   0.0000
    57 H21         19.9470    -7.3157     7.8355 H            1 CMK402   0.0000
    58 H22         18.6873    -6.6171     8.6048 H            1 CMK402   0.0000
    59 H23         19.8993    -8.5577     9.6179 H            1 CMK402   0.0000
    60 H24         22.0061    -6.5143     8.0037 H            1 CMK402   0.0000
@<TRIPOS>BOND
     1    1    2       1
     2    1    6       1
     3    1    9       1
     4    2    3       1
     5    2    7       2
     6    3    4       2
     7    4    5       1
     8    4    8       1
     9    5    6       2
    10    9   10       1
    11    9   14       1
    12   10   11       1
    13   10   12       1
    14   12   13       1
    15   12   15       1
    16   13   14       1
    17   13   16       1
    18   16   17       1
    19   17   18       1
    20   18   19      ar
    21   18   20      ar
    22   18   23       1
    23   21   22       1
    24   21   28       1
    25   22   23       1
    26   22   24       1
    27   22   30       1
    28   24   25       1
    29   25   26       1
    30   25   27       1
    31   27   28       1
    32   27   33       1
    33   28   29       1
    34   29   34       1
    35   29   36       1
    36   30   31      ar
    37   30   32      ar
    38   34   35       1
    39    5   37       1
    40    6   38       1
    41    8   39       1
    42    8   40       1
    43    9   41       1
    44   10   42       1
    45   11   43       1
    46   12   44       1
    47   13   45       1
    48   15   46       1
    49   16   47       1
    50   16   48       1
    51   36   60       1
    52   24   49       1
    53   24   50       1
    54   25   51       1
    55   26   52       1
    56   27   53       1
    57   28   54       1
    58   29   55       1
    59   35   59       1
    60   33   56       1
    61   34   57       1
    62   34   58       1
@<TRIPOS>SUBSTRUCTURE
     1 CMK402      1 GROUP             4 B     CMK     0 **** CMK B 402
