@<TRIPOS>MOLECULE
1soj_IBM_7_ligand
   30    31     1     0     0
SMALL
NO_CHARGES


@<TRIPOS>ATOM
     1 N9          34.8150    -3.8630    93.9910 N.2          1 IBM2117   0.0000
     2 C8          34.0400    -3.4210    92.9690 C.2          1 IBM2117   0.0000
     3 N7          32.7220    -3.6660    93.1100 N.pl3        1 IBM2117   0.0000
     4 C5          32.6110    -4.3480    94.3850 C.2          1 IBM2117   0.0000
     5 C4          33.8420    -4.4770    94.9020 C.2          1 IBM2117   0.0000
     6 N3          34.0210    -5.1360    96.2130 N.pl3        1 IBM2117   0.0000
     7 C2          32.9350    -5.6610    96.9240 C.2          1 IBM2117   0.0000
     8 N1          31.6610    -5.5120    96.3490 N.pl3        1 IBM2117   0.0000
     9 C6          31.4270    -4.8970    95.1150 C.2          1 IBM2117   0.0000
    10 O6          30.3210    -4.7450    94.5660 O.2          1 IBM2117   0.0000
    11 O2          33.1080    -6.2090    98.0070 O.2          1 IBM2117   0.0000
    12 C10         30.5160    -6.0610    97.1030 C.3          1 IBM2117   0.0000
    13 C11         35.3860    -5.2480    96.7520 C.3          1 IBM2117   0.0000
    14 C12         35.9430    -3.8890    97.2520 C.3          1 IBM2117   0.0000
    15 C13         37.3730    -4.0540    97.7770 C.3          1 IBM2117   0.0000
    16 C14         35.0450    -3.2990    98.3620 C.3          1 IBM2117   0.0000
    17 H1          34.4176    -2.9495    92.1721 H            1 IBM2117   0.0000
    18 H2          29.6712    -5.8939    96.5947 H            1 IBM2117   0.0000
    19 H3          30.6405    -7.0453    97.2283 H            1 IBM2117   0.0000
    20 H4          30.4610    -5.6156    97.9966 H            1 IBM2117   0.0000
    21 H5          35.9871    -5.5953    96.0322 H            1 IBM2117   0.0000
    22 H6          35.3763    -5.8914    97.5175 H            1 IBM2117   0.0000
    23 H7          35.9587    -3.2499    96.4830 H            1 IBM2117   0.0000
    24 H8          37.7156    -3.1698    98.0946 H            1 IBM2117   0.0000
    25 H9          37.3764    -4.7049    98.5361 H            1 IBM2117   0.0000
    26 H10         37.9603    -4.3949    97.0430 H            1 IBM2117   0.0000
    27 H11         35.4234    -2.4252    98.6676 H            1 IBM2117   0.0000
    28 H12         34.1226    -3.1556    98.0035 H            1 IBM2117   0.0000
    29 H13         35.0078    -3.9342    99.1334 H            1 IBM2117   0.0000
    30 H14         31.9850    -3.4301    92.4766 H            1 IBM2117   0.0000
@<TRIPOS>BOND
     1    1    2       2
     2    1    5       1
     3    2    3       1
     4    3    4       1
     5    4    5       2
     6    4    9       1
     7    5    6       1
     8    6    7       1
     9    6   13       1
    10    7    8       1
    11    7   11       2
    12    8    9       1
    13    8   12       1
    14    9   10       2
    15   13   14       1
    16   14   15       1
    17   14   16       1
    18   16   29       1
    19    2   17       1
    20   12   18       1
    21   12   19       1
    22   12   20       1
    23   13   21       1
    24   13   22       1
    25   14   23       1
    26   15   24       1
    27   15   25       1
    28   15   26       1
    29   16   27       1
    30   16   28       1
    31    3   30       1
@<TRIPOS>SUBSTRUCTURE
     1 IBM2117     1 GROUP             4 G     IBM     0 **** IBM G2117
