@<TRIPOS>MOLECULE
2wd4_TBV_1_ligand
   89    92     1     0     0
SMALL
NO_CHARGES


@<TRIPOS>ATOM
     1 CHA         13.5410    57.6440    20.3480 C.2          1 TBV1253   0.0000
     2 CHB         12.7380    55.0770    16.2710 C.3          1 TBV1253   0.0000
     3 CHD         16.9970    54.4320    21.5500 C.3          1 TBV1253   0.0000
     4 NA          13.4280    56.1300    18.4170 N.pl3        1 TBV1253   0.0000
     5 C1A         13.0790    57.2830    19.0210 C.2          1 TBV1253   0.0000
     6 C2A         12.0020    58.0360    18.3630 C.2          1 TBV1253   0.0000
     7 C3A         11.7540    57.2740    17.1420 C.2          1 TBV1253   0.0000
     8 C4A         12.7060    56.1510    17.2730 C.2          1 TBV1253   0.0000
     9 CAA         11.3640    59.3190    18.8030 C.3          1 TBV1253   0.0000
    10 CBA         12.2430    60.5100    18.4600 C.3          1 TBV1253   0.0000
    11 CGA         11.5140    61.7110    18.9990 C.2          1 TBV1253   0.0000
    12 O1A         12.0140    62.3280    19.9610 O.co2        1 TBV1253   0.0000
    13 O2A         10.4170    62.0350    18.4840 O.co2        1 TBV1253  -1.0000
    14 CMA         10.7900    57.5690    16.0170 C.3          1 TBV1253   0.0000
    15 NB          14.0720    53.4820    17.5670 N.2          1 TBV1253   0.0000
    16 C1B         13.3580    53.7640    16.4630 C.2          1 TBV1253   0.0000
    17 C2B         13.3050    52.6970    15.4440 C.2          1 TBV1253   0.0000
    18 C3B         14.0860    51.6370    16.0920 C.2          1 TBV1253   0.0000
    19 C4B         14.4800    52.2110    17.3910 C.2          1 TBV1253   0.0000
    20 CMB         12.6140    52.7130    14.1140 C.3          1 TBV1253   0.0000
    21 CAB         14.3920    50.2880    15.5670 C.2          1 TBV1253   0.0000
    22 CBB         14.3210    49.2580    16.3910 C.2          1 TBV1253   0.0000
    23 NC          16.7130    53.8080    19.1520 N.pl3        1 TBV1253   0.0000
    24 C1C         17.3210    52.8620    18.3670 C.2          1 TBV1253   0.0000
    25 C2C         18.3340    51.9960    19.0380 C.2          1 TBV1253   0.0000
    26 C3C         18.3010    52.5590    20.3970 C.2          1 TBV1253   0.0000
    27 C4C         17.3040    53.6350    20.3630 C.2          1 TBV1253   0.0000
    28 CMC         19.1680    50.8700    18.4770 C.3          1 TBV1253   0.0000
    29 CAC         19.0830    52.1990    21.6070 C.2          1 TBV1253   0.0000
    30 CBC         19.5250    50.9870    21.8580 C.2          1 TBV1253   0.0000
    31 ND          15.2240    55.8780    20.6200 N.2          1 TBV1253   0.0000
    32 C1D         16.0360    55.5300    21.6430 C.2          1 TBV1253   0.0000
    33 C2D         15.9020    56.3360    22.8640 C.2          1 TBV1253   0.0000
    34 C3D         14.8670    57.2970    22.5140 C.2          1 TBV1253   0.0000
    35 C4D         14.5220    56.9130    21.1330 C.2          1 TBV1253   0.0000
    36 CMD         16.6420    56.2050    24.1600 C.3          1 TBV1253   0.0000
    37 OC          17.0360    52.6860    17.0260 O.3          1 TBV1253   0.0000
    38 CAD         14.2700    58.3860    23.3540 C.3          1 TBV1253   0.0000
    39 CBD         14.8830    59.7290    22.9960 C.3          1 TBV1253   0.0000
    40 C46         17.0610    54.2080    15.1580 C.3          1 TBV1253   0.0000
    41 CGD         14.3730    60.8200    23.9160 C.2          1 TBV1253   0.0000
    42 O2D         14.5660    61.9940    23.5470 O.co2        1 TBV1253   0.0000
    43 O1D         13.8060    60.5250    24.9920 O.co2        1 TBV1253  -1.0000
    44 C47         19.0960    53.9620    16.5280 C.3          1 TBV1253   0.0000
    45 C44         17.8800    53.2230    15.9850 C.3          1 TBV1253   0.0000
    46 OB          15.2000    51.5610    18.2390 O.2          1 TBV1253   0.0000
    47 C45         18.4070    52.0850    15.1190 C.3          1 TBV1253   0.0000
    48 HHA         13.1504    58.4679    20.7586 H            1 TBV1253   0.0000
    49 HHB1        13.1924    55.4716    15.4724 H            1 TBV1253   0.0000
    50 HHB2        11.7806    54.8896    16.0511 H            1 TBV1253   0.0000
    51 HHD1        17.8715    54.8296    21.8278 H            1 TBV1253   0.0000
    52 HHD2        16.6992    53.7689    22.2367 H            1 TBV1253   0.0000
    53 HA          14.0657    55.4292    18.7367 H            1 TBV1253   0.0000
    54 HAA1        11.2224    59.2913    19.7925 H            1 TBV1253   0.0000
    55 HAA2        10.4820    59.4202    18.3428 H            1 TBV1253   0.0000
    56 HBA1        12.3587    60.5860    17.4696 H            1 TBV1253   0.0000
    57 HBA2        13.1392    60.4203    18.8944 H            1 TBV1253   0.0000
    58 HMA1        10.8582    56.8523    15.3230 H            1 TBV1253   0.0000
    59 HMA2         9.8572    57.5974    16.3762 H            1 TBV1253   0.0000
    60 HMA3        11.0164    58.4526    15.6071 H            1 TBV1253   0.0000
    61 HMB1        12.7617    51.8390    13.6511 H            1 TBV1253   0.0000
    62 HMB2        11.6337    52.8570    14.2494 H            1 TBV1253   0.0000
    63 HMB3        12.9855    53.4537    13.5542 H            1 TBV1253   0.0000
    64 HAB         14.6471    50.1587    14.6088 H            1 TBV1253   0.0000
    65 HBB1        14.5235    48.3369    16.0586 H            1 TBV1253   0.0000
    66 HBB2        14.0648    49.3994    17.3472 H            1 TBV1253   0.0000
    67 HC          16.0054    54.4663    18.8950 H            1 TBV1253   0.0000
    68 HMC1        19.7511    50.4958    19.1981 H            1 TBV1253   0.0000
    69 HMC2        18.5664    50.1514    18.1282 H            1 TBV1253   0.0000
    70 HMC3        19.7391    51.2169    17.7330 H            1 TBV1253   0.0000
    71 HAC         19.2850    52.9206    22.2692 H            1 TBV1253   0.0000
    72 HBC1        20.0470    50.8079    22.6919 H            1 TBV1253   0.0000
    73 HBC2        19.3393    50.2439    21.2150 H            1 TBV1253   0.0000
    74 HMD1        16.3226    56.9052    24.7985 H            1 TBV1253   0.0000
    75 HMD2        16.4757    55.2988    24.5487 H            1 TBV1253   0.0000
    76 HMD3        17.6216    56.3236    23.9979 H            1 TBV1253   0.0000
    77 HAD1        14.4450    58.1909    24.3190 H            1 TBV1253   0.0000
    78 HAD2        13.2834    58.4214    23.1947 H            1 TBV1253   0.0000
    79 HBD1        14.6424    59.9575    22.0527 H            1 TBV1253   0.0000
    80 HBD2        15.8775    59.6678    23.0809 H            1 TBV1253   0.0000
    81 H34         17.6326    54.5893    14.4315 H            1 TBV1253   0.0000
    82 H35         16.2793    53.7339    14.7529 H            1 TBV1253   0.0000
    83 H36         16.7340    54.9468    15.7472 H            1 TBV1253   0.0000
    84 H37         19.6418    54.3108    15.7661 H            1 TBV1253   0.0000
    85 H38         18.7945    54.7256    17.0990 H            1 TBV1253   0.0000
    86 H39         19.6502    53.3349    17.0754 H            1 TBV1253   0.0000
    87 H40         18.9915    52.4577    14.3982 H            1 TBV1253   0.0000
    88 H41         18.9372    51.4535    15.6848 H            1 TBV1253   0.0000
    89 H42         17.6382    51.5971    14.7057 H            1 TBV1253   0.0000
@<TRIPOS>BOND
     1    1    5       1
     2    1   35       2
     3    2    8       1
     4    2   16       1
     5    3   27       1
     6    3   32       1
     7    4    5       1
     8    4    8       1
     9    5    6       2
    10    6    7       1
    11    6    9       1
    12    7    8       2
    13    7   14       1
    14    9   10       1
    15   10   11       1
    16   11   12      ar
    17   11   13      ar
    18   15   16       2
    19   15   19       1
    20   16   17       1
    21   17   18       2
    22   17   20       1
    23   18   19       1
    24   18   21       1
    25   19   46       2
    26   21   22       2
    27   23   24       1
    28   23   27       1
    29   24   25       2
    30   24   37       1
    31   25   26       1
    32   25   28       1
    33   26   27       2
    34   26   29       1
    35   29   30       2
    36   31   32       2
    37   31   35       1
    38   32   33       1
    39   33   34       2
    40   33   36       1
    41   34   35       1
    42   34   38       1
    43   37   45       1
    44   38   39       1
    45   39   41       1
    46   40   45       1
    47   41   42      ar
    48   41   43      ar
    49   44   45       1
    50   45   47       1
    51    1   48       1
    52    2   49       1
    53    2   50       1
    54    3   51       1
    55    3   52       1
    56    4   53       1
    57    9   54       1
    58    9   55       1
    59   10   56       1
    60   10   57       1
    61   47   89       1
    62   14   58       1
    63   14   59       1
    64   14   60       1
    65   20   61       1
    66   20   62       1
    67   20   63       1
    68   21   64       1
    69   22   65       1
    70   22   66       1
    71   23   67       1
    72   28   68       1
    73   28   69       1
    74   28   70       1
    75   29   71       1
    76   30   72       1
    77   30   73       1
    78   36   74       1
    79   36   75       1
    80   36   76       1
    81   38   77       1
    82   38   78       1
    83   39   79       1
    84   39   80       1
    85   40   81       1
    86   40   82       1
    87   40   83       1
    88   47   88       1
    89   44   84       1
    90   44   85       1
    91   44   86       1
    92   47   87       1
@<TRIPOS>SUBSTRUCTURE
     1 TBV1253     1 GROUP             4 A     TBV     0 **** TBV A1253
