@<TRIPOS>MOLECULE
3p2o_NAD_2_ligand
   70    74     1     0     0
SMALL
NO_CHARGES


@<TRIPOS>ATOM
     1 PA          51.6980   -13.9700   -23.4450 P.3          1 NAD291   0.0000
     2 O1A         50.9370   -13.7730   -24.7390 O.co2        1 NAD291   0.0000
     3 O2A         52.3250   -12.6780   -22.9180 O.co2        1 NAD291  -1.0000
     4 O5B         50.6690   -14.4900   -22.4100 O.3          1 NAD291   0.0000
     5 C5B         50.9080   -14.3620   -21.0330 C.3          1 NAD291   0.0000
     6 C4B         49.8750   -14.8680   -20.1200 C.3          1 NAD291   0.0000
     7 O4B         50.3710   -14.8600   -18.8180 O.3          1 NAD291   0.0000
     8 C3B         48.7280   -13.9280   -20.1690 C.3          1 NAD291   0.0000
     9 O3B         47.5090   -14.6340   -20.1050 O.3          1 NAD291   0.0000
    10 C2B         48.8830   -13.1140   -19.0490 C.3          1 NAD291   0.0000
    11 O2B         47.6580   -12.6910   -18.5340 O.3          1 NAD291   0.0000
    12 C1B         49.6160   -13.9660   -18.0680 C.3          1 NAD291   0.0000
    13 N9A         50.4740   -13.2480   -17.1070 N.pl3        1 NAD291   0.0000
    14 C8A         51.4750   -12.3820   -17.3890 C.2          1 NAD291   0.0000
    15 N7A         52.0230   -11.9420   -16.2450 N.2          1 NAD291   0.0000
    16 C5A         51.3720   -12.5250   -15.2170 C.ar         1 NAD291   0.0000
    17 C6A         51.4820   -12.4630   -13.8260 C.ar         1 NAD291   0.0000
    18 N6A         52.4650   -11.6250   -13.2180 N.pl3        1 NAD291   0.0000
    19 N1A         50.6580   -13.1940   -13.0580 N.ar         1 NAD291   0.0000
    20 C2A         49.7240   -13.9780   -13.6260 C.ar         1 NAD291   0.0000
    21 N3A         49.5860   -14.0680   -14.9570 N.ar         1 NAD291   0.0000
    22 C4A         50.3870   -13.3550   -15.7660 C.ar         1 NAD291   0.0000
    23 O3          52.8870   -15.0140   -23.6160 O.3          1 NAD291   0.0000
    24 PN          52.8890   -16.4780   -24.2560 P.3          1 NAD291   0.0000
    25 O1N         51.8700   -17.3840   -23.5920 O.co2        1 NAD291   0.0000
    26 O2N         52.6800   -16.3820   -25.7550 O.co2        1 NAD291  -1.0000
    27 O5D         54.2790   -17.1460   -23.8870 O.3          1 NAD291   0.0000
    28 C5D         54.5300   -17.4740   -22.5330 C.3          1 NAD291   0.0000
    29 C4D         55.9410   -17.3670   -21.9690 C.3          1 NAD291   0.0000
    30 O4D         56.6420   -18.5750   -22.2200 O.3          1 NAD291   0.0000
    31 C3D         56.6840   -16.2560   -22.7010 C.3          1 NAD291   0.0000
    32 O3D         57.6600   -15.6960   -21.8460 O.3          1 NAD291   0.0000
    33 C2D         57.3730   -16.9680   -23.8580 C.3          1 NAD291   0.0000
    34 O2D         58.6450   -16.3940   -24.0680 O.3          1 NAD291   0.0000
    35 C1D         57.5070   -18.4090   -23.3540 C.3          1 NAD291   0.0000
    36 N1N         57.2350   -19.4080   -24.4280 N.ar         1 NAD291   1.0000
    37 C2N         58.1200   -20.4470   -24.6140 C.ar         1 NAD291   0.0000
    38 C3N         58.0200   -21.3100   -25.7070 C.ar         1 NAD291   0.0000
    39 C7N         59.2750   -21.9480   -26.2640 C.2          1 NAD291   0.0000
    40 O7N         60.0095   -21.2973   -27.2828 O.2          1 NAD291   0.0000
    41 N7N         59.6177   -23.1694   -25.8509 N.am         1 NAD291   0.0000
    42 C4N         56.9180   -21.1270   -26.5390 C.ar         1 NAD291   0.0000
    43 C5N         55.8250   -20.4370   -26.0240 C.ar         1 NAD291   0.0000
    44 C6N         56.0640   -19.3950   -25.1350 C.ar         1 NAD291   0.0000
    45 H5B1        51.0301   -13.3887   -20.8386 H            1 NAD291   0.0000
    46 H5B2        51.7556   -14.8517   -20.8285 H            1 NAD291   0.0000
    47 H4B         49.5893   -15.7891   -20.3843 H            1 NAD291   0.0000
    48 H3B         48.7663   -13.3788   -21.0038 H            1 NAD291   0.0000
    49 H5          47.2331   -14.7369   -19.1493 H            1 NAD291   0.0000
    50 H2B         49.4407   -12.3185   -19.2861 H            1 NAD291   0.0000
    51 H7          47.6148   -11.6921   -18.5546 H            1 NAD291   0.0000
    52 H1B         48.9412   -14.4904   -17.5487 H            1 NAD291   0.0000
    53 H8A         51.7622   -12.1115   -18.3079 H            1 NAD291   0.0000
    54 H6A1        52.5399   -11.5839   -12.2217 H            1 NAD291   0.0000
    55 H6A2        53.0786   -11.0791   -13.7885 H            1 NAD291   0.0000
    56 H2A         49.1143   -14.5097   -13.0382 H            1 NAD291   0.0000
    57 H5D1        54.2411   -18.4232   -22.4082 H            1 NAD291   0.0000
    58 H5D2        53.9522   -16.8742   -21.9794 H            1 NAD291   0.0000
    59 H4D         55.9109   -17.1786   -20.9874 H            1 NAD291   0.0000
    60 H3D         56.0511   -15.5566   -23.0332 H            1 NAD291   0.0000
    61 H17         58.5656   -15.8087   -22.2550 H            1 NAD291   0.0000
    62 H2D         56.8175   -16.9269   -24.6885 H            1 NAD291   0.0000
    63 H19         58.6951   -16.0250   -24.9961 H            1 NAD291   0.0000
    64 H1D         58.4487   -18.5398   -23.0440 H            1 NAD291   0.0000
    65 H2N         58.8534   -20.5869   -23.9487 H            1 NAD291   0.0000
    66 H7N1        60.3544   -23.6646   -26.3115 H            1 NAD291   0.0000
    67 H7N2        59.1380   -23.5897   -25.0807 H            1 NAD291   0.0000
    68 H4N         56.9126   -21.4796   -27.4748 H            1 NAD291   0.0000
    69 H5N         54.8922   -20.6840   -26.2863 H            1 NAD291   0.0000
    70 H6N         55.3992   -18.6575   -25.0159 H            1 NAD291   0.0000
@<TRIPOS>BOND
     1    1    2      ar
     2    1    3      ar
     3    1    4       1
     4    1   23       1
     5    4    5       1
     6    5    6       1
     7    6    7       1
     8    6    8       1
     9    7   12       1
    10    8    9       1
    11    8   10       1
    12   10   11       1
    13   10   12       1
    14   12   13       1
    15   13   14       1
    16   13   22       1
    17   14   15       2
    18   15   16       1
    19   16   17      ar
    20   16   22      ar
    21   17   18       1
    22   17   19      ar
    23   19   20      ar
    24   20   21      ar
    25   21   22      ar
    26   23   24       1
    27   24   25      ar
    28   24   26      ar
    29   24   27       1
    30   27   28       1
    31   28   29       1
    32   29   30       1
    33   29   31       1
    34   30   35       1
    35   31   32       1
    36   31   33       1
    37   33   34       1
    38   33   35       1
    39   35   36       1
    40   36   37      ar
    41   36   44      ar
    42   37   38      ar
    43   38   39       1
    44   38   42      ar
    45   39   40       2
    46   39   41      am
    47   42   43      ar
    48   43   44      ar
    49   44   70       1
    50    5   45       1
    51    5   46       1
    52    6   47       1
    53    8   48       1
    54    9   49       1
    55   10   50       1
    56   11   51       1
    57   12   52       1
    58   14   53       1
    59   18   54       1
    60   18   55       1
    61   20   56       1
    62   43   69       1
    63   28   57       1
    64   28   58       1
    65   29   59       1
    66   31   60       1
    67   32   61       1
    68   33   62       1
    69   34   63       1
    70   35   64       1
    71   37   65       1
    72   41   66       1
    73   41   67       1
    74   42   68       1
@<TRIPOS>SUBSTRUCTURE
     1 NAD291      1 GROUP             4 B     NAD     0 **** NAD B 291
