@<TRIPOS>MOLECULE
5ar4_SB2_2_ligand
   43    46     1     0     0
SMALL
NO_CHARGES


@<TRIPOS>ATOM
     1 O2          42.3150    55.8680    28.0510 O.2          1 SB21311   0.0000
     2 C1          41.8950    53.2490    27.9370 C.3          1 SB21311   0.0000
     3 S1          43.0350    54.5840    28.3660 S.o          1 SB21311   0.0000
     4 CA1         45.5580    55.4150    25.3830 C.ar         1 SB21311   0.0000
     5 CA2         44.6200    55.4930    26.4010 C.ar         1 SB21311   0.0000
     6 CA3         44.2500    54.3470    27.0840 C.ar         1 SB21311   0.0000
     7 CA4         44.7950    53.0950    26.7840 C.ar         1 SB21311   0.0000
     8 CA5         45.7450    53.0010    25.7540 C.ar         1 SB21311   0.0000
     9 CA6         46.1200    54.1680    25.0660 C.ar         1 SB21311   0.0000
    10 NB1         51.9950    51.0370    21.5080 N.ar         1 SB21311   0.0000
    11 CB2         52.0220    52.3690    21.2070 C.ar         1 SB21311   0.0000
    12 CB3         50.9880    53.2420    21.5630 C.ar         1 SB21311   0.0000
    13 CB4         49.8970    52.6920    22.2550 C.ar         1 SB21311   0.0000
    14 CB5         49.8580    51.3140    22.5710 C.ar         1 SB21311   0.0000
    15 CB6         50.9410    50.5270    22.1710 C.ar         1 SB21311   0.0000
    16 NC1         48.0750    53.2030    23.8400 N.pl3        1 SB21311   0.0000
    17 CC2         47.0940    54.1230    23.9770 C.2          1 SB21311   0.0000
    18 NC3         47.1000    54.9890    22.9790 N.2          1 SB21311   0.0000
    19 CC4         48.1390    54.6450    22.1440 C.2          1 SB21311   0.0000
    20 CC5         48.7540    53.5150    22.6830 C.2          1 SB21311   0.0000
    21 CD1         48.6530    54.8390    19.7160 C.ar         1 SB21311   0.0000
    22 CD2         48.8370    55.6140    18.5590 C.ar         1 SB21311   0.0000
    23 CD3         48.7060    56.9910    18.6360 C.ar         1 SB21311   0.0000
    24 CD4         48.3990    57.6470    19.8130 C.ar         1 SB21311   0.0000
    25 CD5         48.2090    56.8850    20.9860 C.ar         1 SB21311   0.0000
    26 CD6         48.3480    55.4720    20.9330 C.ar         1 SB21311   0.0000
    27 FD3         48.8910    57.7100    17.5010 F            1 SB21311   0.0000
    28 H1          42.3268    52.3676    28.1282 H            1 SB21311   0.0000
    29 H2          41.0601    53.3361    28.4805 H            1 SB21311   0.0000
    30 H3          41.6672    53.3047    26.9649 H            1 SB21311   0.0000
    31 HA1         45.8306    56.2359    24.8812 H            1 SB21311   0.0000
    32 HA2         44.2121    56.3739    26.6411 H            1 SB21311   0.0000
    33 HA4         44.5137    52.2817    27.2933 H            1 SB21311   0.0000
    34 HA5         46.1482    52.1180    25.5139 H            1 SB21311   0.0000
    35 HB2         52.8111    52.7344    20.7132 H            1 SB21311   0.0000
    36 HB3         51.0244    54.2149    21.3346 H            1 SB21311   0.0000
    37 HB5         49.0831    50.9172    23.0630 H            1 SB21311   0.0000
    38 HB6         50.9325    49.5502    22.3850 H            1 SB21311   0.0000
    39 HC1         48.2701    52.4425    24.4593 H            1 SB21311   0.0000
    40 HD1         48.7385    53.8435    19.6739 H            1 SB21311   0.0000
    41 HD2         49.0604    55.1760    17.6882 H            1 SB21311   0.0000
    42 HD4         48.3130    58.6431    19.8333 H            1 SB21311   0.0000
    43 HD5         47.9783    57.3364    21.8480 H            1 SB21311   0.0000
@<TRIPOS>BOND
     1    1    3       2
     2    2    3       1
     3    3    6       1
     4    4    5      ar
     5    4    9      ar
     6    5    6      ar
     7    6    7      ar
     8    7    8      ar
     9    8    9      ar
    10    9   17       1
    11   10   11      ar
    12   10   15      ar
    13   11   12      ar
    14   12   13      ar
    15   13   14      ar
    16   13   20       1
    17   14   15      ar
    18   16   17       1
    19   16   20       1
    20   17   18       2
    21   18   19       1
    22   19   20       2
    23   19   26       1
    24   21   22      ar
    25   21   26      ar
    26   22   23      ar
    27   23   24      ar
    28   23   27       1
    29   24   25      ar
    30   25   26      ar
    31    2   28       1
    32    2   29       1
    33    2   30       1
    34    4   31       1
    35    5   32       1
    36    7   33       1
    37    8   34       1
    38   11   35       1
    39   12   36       1
    40   14   37       1
    41   15   38       1
    42   16   39       1
    43   21   40       1
    44   22   41       1
    45   24   42       1
    46   25   43       1
@<TRIPOS>SUBSTRUCTURE
     1 SB21311     1 GROUP             4 B     SB2     0 **** SB2 B1311
