@<TRIPOS>MOLECULE
4qvt_ACO_1_ligand
   85    87     1     0     0
SMALL
NO_CHARGES


@<TRIPOS>ATOM
     1 N1A        -56.6670    -2.7410    80.7460 N.ar         1 ACO201   0.0000
     2 C2A        -56.2760    -1.9000    81.7260 C.ar         1 ACO201   0.0000
     3 N3A        -55.2270    -2.1630    82.5230 N.ar         1 ACO201   0.0000
     4 C4A        -54.4970    -3.3050    82.3850 C.ar         1 ACO201   0.0000
     5 C5A        -54.8650    -4.2750    81.3420 C.ar         1 ACO201   0.0000
     6 C6A        -56.0340    -3.9160    80.4900 C.ar         1 ACO201   0.0000
     7 N6A        -56.4640    -4.7290    79.4910 N.pl3        1 ACO201   0.0000
     8 N7A        -53.9800    -5.2930    81.4440 N.2          1 ACO201   0.0000
     9 C8A        -53.1180    -5.0090    82.4610 C.2          1 ACO201   0.0000
    10 N9A        -53.4250    -3.8130    83.0090 N.pl3        1 ACO201   0.0000
    11 C1B        -52.7760    -3.1250    84.1590 C.3          1 ACO201   0.0000
    12 C2B        -53.8360    -3.1460    85.2500 C.3          1 ACO201   0.0000
    13 O2B        -54.6090    -1.9340    85.2450 O.3          1 ACO201   0.0000
    14 C3B        -53.0880    -3.4190    86.5450 C.3          1 ACO201   0.0000
    15 O3B        -52.9870    -2.2160    87.2960 O.3          1 ACO201   0.0000
    16 P3B        -54.3510    -1.6570    87.9750 P.3          1 ACO201   0.0000
    17 O7A        -55.4820    -2.5440    87.4900 O.co2        1 ACO201   0.0000
    18 O8A        -54.5000    -0.2560    87.4400 O.co2        1 ACO201  -1.0000
    19 O9A        -54.0590    -1.7580    89.4590 O.co2        1 ACO201  -1.0000
    20 C4B        -51.7620    -4.0390    86.1130 C.3          1 ACO201   0.0000
    21 O4B        -51.6030    -3.7500    84.7100 O.3          1 ACO201   0.0000
    22 C5B        -51.7880    -5.5590    86.3490 C.3          1 ACO201   0.0000
    23 O5B        -53.0990    -6.1040    86.0790 O.3          1 ACO201   0.0000
    24 P1A        -53.5800    -7.5740    86.5020 P.3          1 ACO201   0.0000
    25 O1A        -55.0840    -7.7160    86.5730 O.co2        1 ACO201   0.0000
    26 O2A        -52.7210    -7.8970    87.7420 O.co2        1 ACO201  -1.0000
    27 O3A        -53.1740    -8.3090    85.1080 O.3          1 ACO201   0.0000
    28 P2A        -53.9780    -9.5460    84.5680 P.3          1 ACO201   0.0000
    29 O4A        -54.1680   -10.5190    85.7270 O.co2        1 ACO201   0.0000
    30 O5A        -55.0950    -9.0500    83.6910 O.co2        1 ACO201  -1.0000
    31 O6A        -52.9580   -10.3120    83.5470 O.3          1 ACO201   0.0000
    32 CBP        -51.2260   -10.5380    81.9110 C.3          1 ACO201   0.0000
    33 CCP        -51.9310    -9.6060    82.8860 C.3          1 ACO201   0.0000
    34 CDP        -50.5030   -11.6420    82.6810 C.3          1 ACO201   0.0000
    35 CEP        -50.2330    -9.6680    81.1480 C.3          1 ACO201   0.0000
    36 CAP        -52.2780   -11.1500    80.9590 C.3          1 ACO201   0.0000
    37 OAP        -52.8260   -10.1140    80.1160 O.3          1 ACO201   0.0000
    38 C9P        -51.6950   -12.1990    80.0540 C.2          1 ACO201   0.0000
    39 O9P        -51.7140   -13.3740    80.3990 O.2          1 ACO201   0.0000
    40 N8P        -51.2020   -11.7360    78.8860 N.am         1 ACO201   0.0000
    41 C7P        -50.5210   -12.5390    77.8530 C.3          1 ACO201   0.0000
    42 C6P        -49.1900   -11.8790    77.4120 C.3          1 ACO201   0.0000
    43 C5P        -48.1780   -12.1370    78.4900 C.2          1 ACO201   0.0000
    44 O5P        -48.2480   -13.1750    79.1130 O.2          1 ACO201   0.0000
    45 N4P        -47.2390   -11.2340    78.7300 N.am         1 ACO201   0.0000
    46 C3P        -46.1810   -11.4620    79.7090 C.3          1 ACO201   0.0000
    47 C2P        -44.9170   -12.0810    79.0840 C.3          1 ACO201   0.0000
    48 S1P        -44.1310   -13.2330    80.1910 S.3          1 ACO201   0.0000
    49 C          -43.4070   -12.1830    81.2810 C.2          1 ACO201   0.0000
    50 O          -43.7420   -10.9880    81.3310 O.2          1 ACO201   0.0000
    51 CH3        -42.3530   -12.7360    82.2010 C.3          1 ACO201   0.0000
    52 H2A        -56.7853    -1.0505    81.8640 H            1 ACO201   0.0000
    53 H6A1       -55.9917    -5.5917    79.3102 H            1 ACO201   0.0000
    54 H6A2       -57.2529    -4.4650    78.9361 H            1 ACO201   0.0000
    55 H8A        -52.3678    -5.5998    82.7581 H            1 ACO201   0.0000
    56 H1B        -52.5677    -2.1790    83.9108 H            1 ACO201   0.0000
    57 H2B        -54.4528    -3.9134    85.0749 H            1 ACO201   0.0000
    58 H7         -55.0633    -1.8321    84.3600 H            1 ACO201   0.0000
    59 H3B        -53.6006    -4.0914    87.0789 H            1 ACO201   0.0000
    60 H4B        -51.0114    -3.6285    86.6307 H            1 ACO201   0.0000
    61 H5B1       -51.5461    -5.7461    87.3011 H            1 ACO201   0.0000
    62 H5B2       -51.1219    -5.9951    85.7439 H            1 ACO201   0.0000
    63 HCP1       -51.2732    -9.2663    83.5582 H            1 ACO201   0.0000
    64 HCP2       -52.3245    -8.8348    82.3856 H            1 ACO201   0.0000
    65 HDP1       -50.0417   -12.2512    82.0359 H            1 ACO201   0.0000
    66 HDP2       -49.8275   -11.2330    83.2945 H            1 ACO201   0.0000
    67 HDP3       -51.1666   -12.1644    83.2165 H            1 ACO201   0.0000
    68 HEP1       -49.7361   -10.2305    80.4872 H            1 ACO201   0.0000
    69 HEP2       -50.7261    -8.9441    80.6655 H            1 ACO201   0.0000
    70 HEP3       -49.5856    -9.2588    81.7910 H            1 ACO201   0.0000
    71 HAP        -53.0141   -11.5560    81.5006 H            1 ACO201   0.0000
    72 H21        -53.5067   -10.5107    79.5002 H            1 ACO201   0.0000
    73 H8P        -51.3082   -10.7584    78.7042 H            1 ACO201   0.0000
    74 H7P1       -51.1216   -12.6236    77.0579 H            1 ACO201   0.0000
    75 H7P2       -50.3270   -13.4478    78.2224 H            1 ACO201   0.0000
    76 H6P1       -49.3199   -10.8945    77.2945 H            1 ACO201   0.0000
    77 H6P2       -48.8798   -12.2795    76.5498 H            1 ACO201   0.0000
    78 H4P        -47.2556   -10.3707    78.2255 H            1 ACO201   0.0000
    79 H3P1       -46.5256   -12.0816    80.4142 H            1 ACO201   0.0000
    80 H3P2       -45.9362   -10.5864    80.1254 H            1 ACO201   0.0000
    81 H2P1       -44.2714   -11.3490    78.8662 H            1 ACO201   0.0000
    82 H2P2       -45.1723   -12.5609    78.2447 H            1 ACO201   0.0000
    83 HH31       -42.0100   -12.0059    82.7920 H            1 ACO201   0.0000
    84 HH32       -42.7490   -13.4618    82.7635 H            1 ACO201   0.0000
    85 HH33       -41.5994   -13.1080    81.6591 H            1 ACO201   0.0000
@<TRIPOS>BOND
     1    1    2      ar
     2    1    6      ar
     3    2    3      ar
     4    3    4      ar
     5    4    5      ar
     6    4   10       1
     7    5    6      ar
     8    5    8       1
     9    6    7       1
    10    8    9       2
    11    9   10       1
    12   10   11       1
    13   11   12       1
    14   11   21       1
    15   12   13       1
    16   12   14       1
    17   14   15       1
    18   14   20       1
    19   15   16       1
    20   16   17      ar
    21   16   18      ar
    22   16   19      ar
    23   20   21       1
    24   20   22       1
    25   22   23       1
    26   23   24       1
    27   24   25      ar
    28   24   26      ar
    29   24   27       1
    30   27   28       1
    31   28   29      ar
    32   28   30      ar
    33   28   31       1
    34   31   33       1
    35   32   33       1
    36   32   34       1
    37   32   35       1
    38   32   36       1
    39   36   37       1
    40   36   38       1
    41   38   39       2
    42   38   40      am
    43   40   41       1
    44   41   42       1
    45   42   43       1
    46   43   44       2
    47   43   45      am
    48   45   46       1
    49   46   47       1
    50   47   48       1
    51   48   49       1
    52   49   50       2
    53   49   51       1
    54    2   52       1
    55    7   53       1
    56    7   54       1
    57    9   55       1
    58   11   56       1
    59   12   57       1
    60   13   58       1
    61   14   59       1
    62   51   85       1
    63   51   84       1
    64   20   60       1
    65   22   61       1
    66   22   62       1
    67   51   83       1
    68   47   82       1
    69   33   63       1
    70   33   64       1
    71   34   65       1
    72   34   66       1
    73   34   67       1
    74   35   68       1
    75   35   69       1
    76   35   70       1
    77   36   71       1
    78   37   72       1
    79   40   73       1
    80   41   74       1
    81   41   75       1
    82   42   76       1
    83   42   77       1
    84   45   78       1
    85   46   79       1
    86   46   80       1
    87   47   81       1
@<TRIPOS>SUBSTRUCTURE
     1 ACO201      1 GROUP             4 A     ACO     0 **** ACO A 201
