@<TRIPOS>MOLECULE
3nzk_C90_2_ligand
   59    61     1     0     0
SMALL
NO_CHARGES


@<TRIPOS>ATOM
     1 C5         -17.7990   -15.0200   -28.7920 C.3          1 C90501   0.0000
     2 C6         -18.7800   -15.3510   -29.9160 C.ar         1 C90501   0.0000
     3 C9         -20.6010   -15.9710   -32.0560 C.ar         1 C90501   0.0000
     4 C10        -21.4630   -16.3380   -33.1100 C.1          1 C90501   0.0000
     5 O1         -13.6960   -14.5670   -29.8510 O.3          1 C90501   0.0000
     6 C11        -22.2030   -16.6530   -34.0110 C.1          1 C90501   0.0000
     7 C12        -23.0140   -17.0540   -35.1040 C.ar         1 C90501   0.0000
     8 C19        -25.3500   -21.0110   -40.5910 C.3          1 C90501   0.0000
     9 C15        -24.5700   -17.9100   -37.3710 C.ar         1 C90501   0.0000
    10 C16        -25.3080   -18.3890   -38.5010 C.2          1 C90501   0.0000
    11 C18        -26.3710   -20.3380   -39.5900 C.3          1 C90501   0.0000
    12 C21        -23.9720   -20.3270   -40.6630 C.3          1 C90501   0.0000
    13 C22        -27.4410   -21.2320   -38.9250 C.2          1 C90501   0.0000
    14 CA1        -14.6250   -14.8160   -30.9070 C.3          1 C90501   0.0000
    15 CA2        -14.2180   -13.5660   -28.9840 C.3          1 C90501   0.0000
    16 CB1        -15.9480   -15.3570   -30.2920 C.3          1 C90501   0.0000
    17 CB2        -15.4330   -14.2070   -28.3050 C.3          1 C90501   0.0000
    18 N4         -16.5120   -14.4170   -29.3060 N.4          1 C90501   1.0000
    19 CC1        -19.6090   -14.3050   -30.4950 C.ar         1 C90501   0.0000
    20 CC2        -18.8700   -16.7080   -30.4080 C.ar         1 C90501   0.0000
    21 CD1        -20.5210   -14.6130   -31.5750 C.ar         1 C90501   0.0000
    22 CD2        -19.7890   -17.0130   -31.4820 C.ar         1 C90501   0.0000
    23 CE1        -23.5370   -18.4000   -35.1330 C.ar         1 C90501   0.0000
    24 CE2        -23.2470   -16.1320   -36.1870 C.ar         1 C90501   0.0000
    25 CF1        -24.3140   -18.8310   -36.2610 C.ar         1 C90501   0.0000
    26 CF         -24.0300   -16.5500   -37.3290 C.ar         1 C90501   0.0000
    27 O16        -25.4750   -17.6670   -39.4930 O.2          1 C90501   0.0000
    28 N17        -25.5870   -19.6850   -38.5270 N.am         1 C90501   0.0000
    29 O20        -25.1220   -22.3720   -40.2250 O.3          1 C90501   0.0000
    30 N23        -28.6830   -20.9640   -39.2400 N.am         1 C90501   0.0000
    31 O22        -27.1270   -22.2680   -38.3810 O.2          1 C90501   0.0000
    32 O24        -29.6820   -21.7370   -38.8440 O.3          1 C90501  -1.0000
    33 H1         -17.5834   -15.8614   -28.2964 H            1 C90501   0.0000
    34 H2         -18.2324   -14.3682   -28.1696 H            1 C90501   0.0000
    35 H3         -25.7539   -20.9969   -41.5057 H            1 C90501   0.0000
    36 H4         -26.8518   -19.6189   -40.0917 H            1 C90501   0.0000
    37 H5         -23.3918   -20.8140   -41.3158 H            1 C90501   0.0000
    38 H6         -24.0855   -19.3791   -40.9605 H            1 C90501   0.0000
    39 H7         -23.5439   -20.3438   -39.7594 H            1 C90501   0.0000
    40 HA11       -14.2449   -15.4937   -31.5364 H            1 C90501   0.0000
    41 HA12       -14.8070   -13.9664   -31.4021 H            1 C90501   0.0000
    42 HA21       -14.4947   -12.7599   -29.5072 H            1 C90501   0.0000
    43 HA22       -13.5350   -13.3029   -28.3026 H            1 C90501   0.0000
    44 HB11       -15.7627   -16.2294   -29.8397 H            1 C90501   0.0000
    45 HB12       -16.6136   -15.4964   -31.0252 H            1 C90501   0.0000
    46 HB21       -15.7651   -13.6042   -27.5795 H            1 C90501   0.0000
    47 HB22       -15.1682   -15.0875   -27.9117 H            1 C90501   0.0000
    48 HC1        -19.5482   -13.3701   -30.1453 H            1 C90501   0.0000
    49 HC2        -18.3023   -17.4283   -30.0094 H            1 C90501   0.0000
    50 HD1        -21.0871   -13.8960   -31.9818 H            1 C90501   0.0000
    51 HD2        -19.8609   -17.9489   -31.8268 H            1 C90501   0.0000
    52 HE1        -23.3595   -19.0264   -34.3740 H            1 C90501   0.0000
    53 HE2        -22.8688   -15.2070   -36.1490 H            1 C90501   0.0000
    54 HF1        -24.6808   -19.7609   -36.2888 H            1 C90501   0.0000
    55 HF         -24.2009   -15.9157   -38.0830 H            1 C90501   0.0000
    56 H24        -25.2444   -20.2540   -37.7795 H            1 C90501   0.0000
    57 H25        -25.2246   -22.4727   -39.2354 H            1 C90501   0.0000
    58 H26        -28.8820   -20.1553   -39.7935 H            1 C90501   0.0000
    59 H27        -16.7139   -13.5484   -29.7584 H            1 C90501   0.0000
@<TRIPOS>BOND
     1    1    2       1
     2    1   18       1
     3    2   19      ar
     4    2   20      ar
     5    3    4       1
     6    3   21      ar
     7    3   22      ar
     8    4    6       3
     9    5   14       1
    10    5   15       1
    11    6    7       1
    12    7   23      ar
    13    7   24      ar
    14    8   11       1
    15    8   12       1
    16    8   29       1
    17    9   10       1
    18    9   25      ar
    19    9   26      ar
    20   10   27       2
    21   10   28      am
    22   11   13       1
    23   11   28       1
    24   13   30      am
    25   13   31       2
    26   14   16       1
    27   15   17       1
    28   16   18       1
    29   17   18       1
    30   19   21      ar
    31   20   22      ar
    32   23   25      ar
    33   24   26      ar
    34   30   32       1
    35    1   33       1
    36    1   34       1
    37    8   35       1
    38   11   36       1
    39   12   37       1
    40   12   38       1
    41   12   39       1
    42   14   40       1
    43   14   41       1
    44   15   42       1
    45   15   43       1
    46   16   44       1
    47   16   45       1
    48   17   46       1
    49   17   47       1
    50   19   48       1
    51   20   49       1
    52   21   50       1
    53   22   51       1
    54   23   52       1
    55   24   53       1
    56   25   54       1
    57   26   55       1
    58   28   56       1
    59   29   57       1
    60   30   58       1
    61   18   59       1
@<TRIPOS>SUBSTRUCTURE
     1 C90501      1 GROUP             4 B     C90     0 **** C90 B 501
