@<TRIPOS>MOLECULE
1lrh_NLA_3_ligand
   23    24     1     0     0
SMALL
NO_CHARGES


@<TRIPOS>ATOM
     1 C1          67.0620    41.4120    23.3770 C.ar         1 NLA7190   0.0000
     2 C2          67.3560    41.0350    24.7090 C.ar         1 NLA7190   0.0000
     3 C3          68.6830    41.0750    25.1790 C.ar         1 NLA7190   0.0000
     4 C4          69.7240    41.4490    24.2940 C.ar         1 NLA7190   0.0000
     5 C5          69.4720    41.8320    23.0220 C.ar         1 NLA7190   0.0000
     6 C6          68.1620    41.8330    22.5090 C.ar         1 NLA7190   0.0000
     7 C7          67.8870    42.1940    21.1380 C.ar         1 NLA7190   0.0000
     8 C8          66.5860    42.1760    20.6710 C.ar         1 NLA7190   0.0000
     9 C9          65.5030    41.7940    21.5090 C.ar         1 NLA7190   0.0000
    10 C10         65.7230    41.4250    22.8310 C.ar         1 NLA7190   0.0000
    11 C11         66.2660    40.6060    25.7450 C.3          1 NLA7190   0.0000
    12 C12         66.7580    39.6240    26.7270 C.2          1 NLA7190   0.0000
    13 O1          66.8010    38.3250    26.4730 O.co2        1 NLA7190   0.0000
    14 O2          67.2210    40.1640    27.8410 O.co2        1 NLA7190  -1.0000
    15 H1          68.8886    40.8414    26.1293 H            1 NLA7190   0.0000
    16 H2          70.6697    41.4292    24.6184 H            1 NLA7190   0.0000
    17 H3          70.2296    42.1194    22.4360 H            1 NLA7190   0.0000
    18 H4          68.6352    42.4561    20.5285 H            1 NLA7190   0.0000
    19 H5          66.4027    42.4373    19.7233 H            1 NLA7190   0.0000
    20 H6          64.5723    41.7907    21.1432 H            1 NLA7190   0.0000
    21 H7          64.9491    41.1665    23.4091 H            1 NLA7190   0.0000
    22 H8          65.4968    40.2027    25.2493 H            1 NLA7190   0.0000
    23 H9          65.9560    41.4199    26.2364 H            1 NLA7190   0.0000
@<TRIPOS>BOND
     1    1    2      ar
     2    1    6      ar
     3    1   10      ar
     4    2    3      ar
     5    2   11       1
     6    3    4      ar
     7    4    5      ar
     8    5    6      ar
     9    6    7      ar
    10    7    8      ar
    11    8    9      ar
    12    9   10      ar
    13   11   12       1
    14   12   13      ar
    15   12   14      ar
    16    3   15       1
    17    4   16       1
    18    5   17       1
    19    7   18       1
    20    8   19       1
    21    9   20       1
    22   10   21       1
    23   11   22       1
    24   11   23       1
@<TRIPOS>SUBSTRUCTURE
     1 NLA7190     1 GROUP             4 C     NLA     0 **** NLA C7190
