@<TRIPOS>MOLECULE
4qdj_SAM_1_ligand
   50    52     1     0     0
SMALL
NO_CHARGES


@<TRIPOS>ATOM
     1 N           19.9850     1.8310     2.6170 N.4          1 SAM301   1.0000
     2 CA          18.9730     1.7750     3.6690 C.3          1 SAM301   0.0000
     3 C           18.9360     3.0790     4.4540 C.2          1 SAM301   0.0000
     4 O           19.9340     3.7970     4.5310 O.co2        1 SAM301   0.0000
     5 OXT         17.9060     3.4420     5.0230 O.co2        1 SAM301  -1.0000
     6 CB          19.1720     0.5800     4.6030 C.3          1 SAM301   0.0000
     7 CG          20.5060     0.4900     5.3420 C.3          1 SAM301   0.0000
     8 SD          20.5600    -0.9260     6.4790 S.3          1 SAM301   1.0000
     9 CE          21.9060    -0.4530     7.5930 C.3          1 SAM301   0.0000
    10 C5'         21.4270    -2.1370     5.4590 C.3          1 SAM301   0.0000
    11 C4'         20.4810    -2.8460     4.5020 C.3          1 SAM301   0.0000
    12 O4'         21.2370    -3.3890     3.4410 O.3          1 SAM301   0.0000
    13 C3'         19.7280    -4.0000     5.1510 C.3          1 SAM301   0.0000
    14 O3'         18.3480    -3.8320     4.9250 O.3          1 SAM301   0.0000
    15 C2'         20.2160    -5.2320     4.4150 C.3          1 SAM301   0.0000
    16 O2'         19.1930    -6.1870     4.2370 O.3          1 SAM301   0.0000
    17 C1'         20.6900    -4.6400     3.0990 C.3          1 SAM301   0.0000
    18 N9          21.6910    -5.4630     2.4090 N.pl3        1 SAM301   0.0000
    19 C8          22.8090    -6.0420     2.9450 C.2          1 SAM301   0.0000
    20 N7          23.4510    -6.7100     1.9590 N.2          1 SAM301   0.0000
    21 C5          22.7560    -6.5590     0.8090 C.ar         1 SAM301   0.0000
    22 C6          22.9630    -7.0260    -0.4800 C.ar         1 SAM301   0.0000
    23 N6          24.0210    -7.7840    -0.7580 N.pl3        1 SAM301   0.0000
    24 N1          22.0590    -6.7010    -1.4680 N.ar         1 SAM301   0.0000
    25 C2          20.9620    -5.9150    -1.1790 C.ar         1 SAM301   0.0000
    26 N3          20.7600    -5.4570     0.1060 N.ar         1 SAM301   0.0000
    27 C4          21.6480    -5.7740     1.0790 C.ar         1 SAM301   0.0000
    28 H1          19.9922     0.9662     2.1150 H            1 SAM301   0.0000
    29 H2          19.7718     2.5793     1.9888 H            1 SAM301   0.0000
    30 HA          18.0835     1.6654     3.2254 H            1 SAM301   0.0000
    31 HB1         19.0746    -0.2506     4.0547 H            1 SAM301   0.0000
    32 HB2         18.4475     0.6117     5.2916 H            1 SAM301   0.0000
    33 HG1         20.6419     1.3305     5.8664 H            1 SAM301   0.0000
    34 HG2         21.2410     0.3934     4.6709 H            1 SAM301   0.0000
    35 HE1         22.0367    -1.1677     8.2801 H            1 SAM301   0.0000
    36 HE2         22.7489    -0.3379     7.0673 H            1 SAM301   0.0000
    37 HE3         21.6760     0.4078     8.0470 H            1 SAM301   0.0000
    38 H5'1        21.8543    -2.8166     6.0553 H            1 SAM301   0.0000
    39 H5'2        22.1332    -1.6679     4.9286 H            1 SAM301   0.0000
    40 H4'         19.8243    -2.1863     4.1366 H            1 SAM301   0.0000
    41 H3'         19.9298    -4.0592     6.1286 H            1 SAM301   0.0000
    42 H15         18.1699    -3.8242     3.9410 H            1 SAM301   0.0000
    43 H2'         20.9861    -5.6413     4.9042 H            1 SAM301   0.0000
    44 H17         18.7210    -6.0127     3.3728 H            1 SAM301   0.0000
    45 H1'         19.9037    -4.5028     2.4967 H            1 SAM301   0.0000
    46 H19         23.1008    -5.9819     3.8996 H            1 SAM301   0.0000
    47 H20         24.1658    -8.1183    -1.6893 H            1 SAM301   0.0000
    48 H21         24.6712    -8.0193    -0.0356 H            1 SAM301   0.0000
    49 H22         20.3132    -5.6774    -1.9019 H            1 SAM301   0.0000
    50 H23         20.8838     1.9859     3.0270 H            1 SAM301   0.0000
@<TRIPOS>BOND
     1    1    2       1
     2    2    3       1
     3    2    6       1
     4    3    4      ar
     5    3    5      ar
     6    6    7       1
     7    7    8       1
     8    8    9       1
     9    8   10       1
    10   10   11       1
    11   11   12       1
    12   11   13       1
    13   12   17       1
    14   13   14       1
    15   13   15       1
    16   15   16       1
    17   15   17       1
    18   17   18       1
    19   18   19       1
    20   18   27       1
    21   19   20       2
    22   20   21       1
    23   21   22      ar
    24   21   27      ar
    25   22   23       1
    26   22   24      ar
    27   24   25      ar
    28   25   26      ar
    29   26   27      ar
    30    1   28       1
    31    1   29       1
    32    2   30       1
    33    1   50       1
    34    6   31       1
    35    6   32       1
    36    7   33       1
    37    7   34       1
    38    9   35       1
    39    9   36       1
    40    9   37       1
    41   10   38       1
    42   10   39       1
    43   11   40       1
    44   13   41       1
    45   14   42       1
    46   15   43       1
    47   16   44       1
    48   17   45       1
    49   19   46       1
    50   23   47       1
    51   23   48       1
    52   25   49       1
@<TRIPOS>SUBSTRUCTURE
     1 SAM301      1 GROUP             4 A     SAM     0 **** SAM A 301
