@<TRIPOS>MOLECULE
1sow_NAD_2_ligand
   70    74     1     0     0
SMALL
NO_CHARGES


@<TRIPOS>ATOM
     1 PA          53.0290    72.4010    11.4670 P.3          1 NAD501   0.0000
     2 O1A         51.7060    71.9730    11.7990 O.co2        1 NAD501   0.0000
     3 O2A         53.4860    72.1520    10.0600 O.co2        1 NAD501  -1.0000
     4 O5B         53.1480    73.9450    11.7800 O.3          1 NAD501   0.0000
     5 C5B         54.4020    74.6800    11.6980 C.3          1 NAD501   0.0000
     6 C4B         53.7810    76.0810    11.4990 C.3          1 NAD501   0.0000
     7 O4B         54.8130    77.1670    11.4670 O.3          1 NAD501   0.0000
     8 C3B         52.9540    76.3190    10.1580 C.3          1 NAD501   0.0000
     9 O3B         51.6880    76.8960    10.4770 O.3          1 NAD501   0.0000
    10 C2B         53.8540    77.2350     9.3370 C.3          1 NAD501   0.0000
    11 O2B         53.1380    78.0720     8.4520 O.3          1 NAD501   0.0000
    12 C1B         54.5200    78.0700    10.4230 C.3          1 NAD501   0.0000
    13 N9A         55.6440    78.8440     9.9180 N.pl3        1 NAD501   0.0000
    14 C8A         56.5760    78.5960     8.9090 C.2          1 NAD501   0.0000
    15 N7A         57.4440    79.5640     8.7390 N.2          1 NAD501   0.0000
    16 C5A         57.0620    80.5130     9.6960 C.ar         1 NAD501   0.0000
    17 C6A         57.6150    81.7710     9.9850 C.ar         1 NAD501   0.0000
    18 N6A         58.6730    82.3540     9.3690 N.pl3        1 NAD501   0.0000
    19 N1A         57.0150    82.5190    11.0190 N.ar         1 NAD501   0.0000
    20 C2A         55.9090    82.0210    11.7230 C.ar         1 NAD501   0.0000
    21 N3A         55.3430    80.7850    11.4500 N.ar         1 NAD501   0.0000
    22 C4A         55.9550    80.0650    10.4260 C.ar         1 NAD501   0.0000
    23 O3          54.0390    71.7160    12.4780 O.3          1 NAD501   0.0000
    24 PN          53.9000    71.2320    13.9900 P.3          1 NAD501   0.0000
    25 O1N         53.2920    69.8870    14.0420 O.co2        1 NAD501   0.0000
    26 O2N         53.2190    72.3400    14.7210 O.co2        1 NAD501  -1.0000
    27 O5D         55.4350    71.1040    14.3930 O.3          1 NAD501   0.0000
    28 C5D         56.1690    72.3430    14.5980 C.3          1 NAD501   0.0000
    29 C4D         57.6400    72.0710    14.7650 C.3          1 NAD501   0.0000
    30 O4D         57.9120    71.3450    15.9860 O.3          1 NAD501   0.0000
    31 C3D         58.3550    71.2400    13.6270 C.3          1 NAD501   0.0000
    32 O3D         59.6460    71.8450    13.3030 O.3          1 NAD501   0.0000
    33 C2D         58.4780    69.8630    14.2670 C.3          1 NAD501   0.0000
    34 O2D         59.5170    69.0760    13.6940 O.3          1 NAD501   0.0000
    35 C1D         58.7790    70.2300    15.6620 C.3          1 NAD501   0.0000
    36 N1N         58.5420    69.2640    16.7490 N.ar         1 NAD501   1.0000
    37 C2N         59.3900    69.2660    17.8760 C.ar         1 NAD501   0.0000
    38 C3N         59.1720    68.3560    18.8900 C.ar         1 NAD501   0.0000
    39 C7N         60.1200    68.3990    20.0690 C.2          1 NAD501   0.0000
    40 O7N         59.9720    67.5640    20.9370 O.2          1 NAD501   0.0000
    41 N7N         61.0560    69.2950    20.1110 N.am         1 NAD501   0.0000
    42 C4N         58.0760    67.3830    18.8240 C.ar         1 NAD501   0.0000
    43 C5N         57.2210    67.4160    17.6650 C.ar         1 NAD501   0.0000
    44 C6N         57.4400    68.3600    16.5950 C.ar         1 NAD501   0.0000
    45 H5B1        54.9628    74.3955    10.9205 H            1 NAD501   0.0000
    46 H5B2        54.9399    74.6151    12.5385 H            1 NAD501   0.0000
    47 H4B         53.1714    76.2593    12.2714 H            1 NAD501   0.0000
    48 H3B         52.8227    75.4509     9.6793 H            1 NAD501   0.0000
    49 H5          51.7658    77.8930    10.4742 H            1 NAD501   0.0000
    50 H2B         54.5364    76.7004     8.8384 H            1 NAD501   0.0000
    51 H7          52.9103    78.9289     8.9145 H            1 NAD501   0.0000
    52 H1B         53.8388    78.7167    10.7662 H            1 NAD501   0.0000
    53 H8A         56.5813    77.7567     8.3654 H            1 NAD501   0.0000
    54 H6A1        58.9836    83.2593     9.6587 H            1 NAD501   0.0000
    55 H6A2        59.1426    81.8786     8.6250 H            1 NAD501   0.0000
    56 H2A         55.5125    82.5799    12.4513 H            1 NAD501   0.0000
    57 H5D1        55.8240    72.7964    15.4198 H            1 NAD501   0.0000
    58 H5D2        56.0335    72.9392    13.8066 H            1 NAD501   0.0000
    59 H4D         58.1042    72.9543    14.8299 H            1 NAD501   0.0000
    60 H3D         57.7768    71.1953    12.8124 H            1 NAD501   0.0000
    61 H17         59.8635    71.6720    12.3424 H            1 NAD501   0.0000
    62 H2D         57.6056    69.3769    14.2161 H            1 NAD501   0.0000
    63 H19         59.1278    68.2387    13.3099 H            1 NAD501   0.0000
    64 H1D         59.7285    70.5396    15.7123 H            1 NAD501   0.0000
    65 H2N         60.1427    69.9213    17.9396 H            1 NAD501   0.0000
    66 H7N1        61.6839    69.3260    20.8886 H            1 NAD501   0.0000
    67 H7N2        61.1500    69.9551    19.3658 H            1 NAD501   0.0000
    68 H4N         57.9276    66.7201    19.5578 H            1 NAD501   0.0000
    69 H5N         56.4594    66.7711    17.6003 H            1 NAD501   0.0000
    70 H6N         56.8521    68.3823    15.7864 H            1 NAD501   0.0000
@<TRIPOS>BOND
     1    1    2      ar
     2    1    3      ar
     3    1    4       1
     4    1   23       1
     5    4    5       1
     6    5    6       1
     7    6    7       1
     8    6    8       1
     9    7   12       1
    10    8    9       1
    11    8   10       1
    12   10   11       1
    13   10   12       1
    14   12   13       1
    15   13   14       1
    16   13   22       1
    17   14   15       2
    18   15   16       1
    19   16   17      ar
    20   16   22      ar
    21   17   18       1
    22   17   19      ar
    23   19   20      ar
    24   20   21      ar
    25   21   22      ar
    26   23   24       1
    27   24   25      ar
    28   24   26      ar
    29   24   27       1
    30   27   28       1
    31   28   29       1
    32   29   30       1
    33   29   31       1
    34   30   35       1
    35   31   32       1
    36   31   33       1
    37   33   34       1
    38   33   35       1
    39   35   36       1
    40   36   37      ar
    41   36   44      ar
    42   37   38      ar
    43   38   39       1
    44   38   42      ar
    45   39   40       2
    46   39   41      am
    47   42   43      ar
    48   43   44      ar
    49   44   70       1
    50    5   45       1
    51    5   46       1
    52    6   47       1
    53    8   48       1
    54    9   49       1
    55   10   50       1
    56   11   51       1
    57   12   52       1
    58   14   53       1
    59   18   54       1
    60   18   55       1
    61   20   56       1
    62   43   69       1
    63   28   57       1
    64   28   58       1
    65   29   59       1
    66   31   60       1
    67   32   61       1
    68   33   62       1
    69   34   63       1
    70   35   64       1
    71   37   65       1
    72   41   66       1
    73   41   67       1
    74   42   68       1
@<TRIPOS>SUBSTRUCTURE
     1 NAD501      1 GROUP             4 B     NAD     0 **** NAD B 501
