@<TRIPOS>MOLECULE
4g27_PHU_1_ligand
   18    18     1     0     0
SMALL
NO_CHARGES


@<TRIPOS>ATOM
     1 C1          36.2130    52.5100    49.5320 C.2          1 PHU1006   0.0000
     2 C2          34.7770    50.8660    50.7240 C.ar         1 PHU1006   0.0000
     3 C3          33.7050    51.7240    50.9290 C.ar         1 PHU1006   0.0000
     4 C4          34.7950    49.6250    51.3470 C.ar         1 PHU1006   0.0000
     5 C5          33.7460    49.2530    52.1710 C.ar         1 PHU1006   0.0000
     6 C6          32.6590    51.3370    51.7520 C.ar         1 PHU1006   0.0000
     7 C7          32.6810    50.1050    52.3730 C.ar         1 PHU1006   0.0000
     8 N1          35.8990    51.2510    49.9550 N.am         1 PHU1006   0.0000
     9 N2          37.3660    52.6120    48.8740 N.am         1 PHU1006   0.0000
    10 O1          35.4750    53.4790    49.7520 O.2          1 PHU1006   0.0000
    11 H1          33.6875    52.6193    50.4839 H            1 PHU1006   0.0000
    12 H2          35.5633    49.0018    51.2010 H            1 PHU1006   0.0000
    13 H3          33.7610    48.3608    52.6224 H            1 PHU1006   0.0000
    14 H4          31.8849    51.9534    51.8964 H            1 PHU1006   0.0000
    15 H5          31.9259    49.8306    52.9684 H            1 PHU1006   0.0000
    16 H6          36.5311    50.5219    49.6925 H            1 PHU1006   0.0000
    17 H7          37.6687    53.5010    48.5305 H            1 PHU1006   0.0000
    18 H8          37.9293    51.7996    48.7233 H            1 PHU1006   0.0000
@<TRIPOS>BOND
     1    1    8      am
     2    1    9      am
     3    1   10       2
     4    2    3      ar
     5    2    4      ar
     6    2    8       1
     7    3    6      ar
     8    4    5      ar
     9    5    7      ar
    10    6    7      ar
    11    3   11       1
    12    4   12       1
    13    5   13       1
    14    6   14       1
    15    7   15       1
    16    8   16       1
    17    9   17       1
    18    9   18       1
@<TRIPOS>SUBSTRUCTURE
     1 PHU1006     1 GROUP             4 R     PHU     0 **** PHU R1006
