@<TRIPOS>MOLECULE
4rvu_NDP_4_ligand
   73    77     1     0     0
SMALL
NO_CHARGES


@<TRIPOS>ATOM
     1 PA          26.3840    26.3420   139.9710 P.3          1 NDP401   0.0000
     2 O1A         26.3110    27.2620   141.1590 O.co2        1 NDP401   0.0000
     3 O2A         25.6300    26.6710   138.7150 O.co2        1 NDP401  -1.0000
     4 O5B         25.9650    24.8680   140.4480 O.3          1 NDP401   0.0000
     5 C5B         25.6100    23.8900   139.4790 C.3          1 NDP401   0.0000
     6 C4B         24.0970    23.9080   139.3670 C.3          1 NDP401   0.0000
     7 O4B         23.6480    23.1250   138.2630 O.3          1 NDP401   0.0000
     8 C3B         23.4470    23.3040   140.5960 C.3          1 NDP401   0.0000
     9 O3B         23.2330    24.2750   141.6190 O.3          1 NDP401   0.0000
    10 C2B         22.1370    22.7740   140.0590 C.3          1 NDP401   0.0000
    11 O2B         21.1010    23.7130   140.3020 O.3          1 NDP401   0.0000
    12 C1B         22.3610    22.5910   138.5650 C.3          1 NDP401   0.0000
    13 N9A         22.2920    21.1360   138.2980 N.pl3        1 NDP401   0.0000
    14 C8A         21.4440    20.5310   137.4520 C.2          1 NDP401   0.0000
    15 N7A         21.6210    19.1890   137.4580 N.2          1 NDP401   0.0000
    16 C5A         22.5980    18.9170   138.3370 C.ar         1 NDP401   0.0000
    17 C6A         23.2820    17.7030   138.8330 C.ar         1 NDP401   0.0000
    18 N6A         22.9430    16.4760   138.3750 N.pl3        1 NDP401   0.0000
    19 N1A         24.2540    17.8610   139.7560 N.ar         1 NDP401   0.0000
    20 C2A         24.5990    19.0730   140.2180 C.ar         1 NDP401   0.0000
    21 N3A         24.0220    20.2150   139.8140 N.ar         1 NDP401   0.0000
    22 C4A         23.0340    20.2050   138.8930 C.ar         1 NDP401   0.0000
    23 O3          27.9200    26.0960   139.5720 O.3          1 NDP401   0.0000
    24 PN          28.8760    27.2500   138.9900 P.3          1 NDP401   0.0000
    25 O1N         28.1170    28.5510   138.9440 O.co2        1 NDP401   0.0000
    26 O2N         30.1830    27.1690   139.7350 O.co2        1 NDP401  -1.0000
    27 O5D         29.1430    26.7540   137.4860 O.3          1 NDP401   0.0000
    28 C5D         28.0640    26.4240   136.6160 C.3          1 NDP401   0.0000
    29 C4D         28.5930    25.5660   135.4760 C.3          1 NDP401   0.0000
    30 O4D         29.4400    26.3430   134.6300 O.3          1 NDP401   0.0000
    31 C3D         29.4410    24.4230   136.0000 C.3          1 NDP401   0.0000
    32 O3D         29.1320    23.2560   135.2440 O.3          1 NDP401   0.0000
    33 C2D         30.8680    24.8300   135.7090 C.3          1 NDP401   0.0000
    34 O2D         31.6600    23.6780   135.4240 O.3          1 NDP401   0.0000
    35 C1D         30.7130    25.7150   134.4860 C.3          1 NDP401   0.0000
    36 N1N         31.7540    26.7360   134.3640 N.ar         1 NDP401   1.0000
    37 C2N         32.4040    26.8390   133.2040 C.ar         1 NDP401   0.0000
    38 C3N         33.3960    27.7850   132.9980 C.ar         1 NDP401   0.0000
    39 C7N         34.0850    27.8390   131.6670 C.2          1 NDP401   0.0000
    40 O7N         34.9141    28.7087   131.4625 O.2          1 NDP401   0.0000
    41 N7N         33.7671    26.9373   130.7438 N.am         1 NDP401   0.0000
    42 C4N         33.7820    28.7580   134.0880 C.ar         1 NDP401   0.0000
    43 C5N         32.9960    28.5460   135.2960 C.ar         1 NDP401   0.0000
    44 C6N         32.0220    27.5570   135.3850 C.ar         1 NDP401   0.0000
    45 P2B         19.5780    23.3460   139.9450 P.3          1 NDP401   0.0000
    46 O1X         18.8480    23.4340   141.2530 O.co2        1 NDP401   0.0000
    47 O2X         19.1810    24.3950   138.9490 O.co2        1 NDP401  -1.0000
    48 O3X         19.6520    21.9590   139.3720 O.co2        1 NDP401  -1.0000
    49 H5B1        25.9222    22.9864   139.7723 H            1 NDP401   0.0000
    50 H5B2        26.0227    24.1150   138.5964 H            1 NDP401   0.0000
    51 H4B         23.7834    24.8509   139.2548 H            1 NDP401   0.0000
    52 H3B         24.0051    22.5519   140.9464 H            1 NDP401   0.0000
    53 H5          23.7311    24.0060   142.4433 H            1 NDP401   0.0000
    54 H2B         21.9169    21.8971   140.4862 H            1 NDP401   0.0000
    55 H1B         21.6547    23.0730   138.0465 H            1 NDP401   0.0000
    56 H8A         20.7691    21.0094   136.8902 H            1 NDP401   0.0000
    57 H6A1        23.4153    15.6652   138.7207 H            1 NDP401   0.0000
    58 H6A2        22.2201    16.3798   137.6908 H            1 NDP401   0.0000
    59 H2A         25.3268    19.1280   140.9016 H            1 NDP401   0.0000
    60 H5D1        27.6625    27.2621   136.2467 H            1 NDP401   0.0000
    61 H5D2        27.3676    25.9160   137.1230 H            1 NDP401   0.0000
    62 H4D         27.8279    25.2022   134.9447 H            1 NDP401   0.0000
    63 H3D         29.2939    24.2758   136.9781 H            1 NDP401   0.0000
    64 H16         28.1817    23.3004   134.9359 H            1 NDP401   0.0000
    65 H2D         31.2534    25.3457   136.4742 H            1 NDP401   0.0000
    66 H18         31.0895    22.8587   135.4815 H            1 NDP401   0.0000
    67 H1D         30.7100    25.1457   133.6639 H            1 NDP401   0.0000
    68 H2N         32.1684    26.2142   132.4596 H            1 NDP401   0.0000
    69 H7N1        34.2099    26.9618   129.8475 H            1 NDP401   0.0000
    70 H7N2        33.0851    26.2343   130.9455 H            1 NDP401   0.0000
    71 H4N         34.4883    29.4593   133.9920 H            1 NDP401   0.0000
    72 H5N         33.1625    29.1320   136.0890 H            1 NDP401   0.0000
    73 H6N         31.5075    27.4571   136.2367 H            1 NDP401   0.0000
@<TRIPOS>BOND
     1    1    2      ar
     2    1    3      ar
     3    1    4       1
     4    1   23       1
     5    4    5       1
     6    5    6       1
     7    6    7       1
     8    6    8       1
     9    7   12       1
    10    8    9       1
    11    8   10       1
    12   10   11       1
    13   10   12       1
    14   11   45       1
    15   12   13       1
    16   13   14       1
    17   13   22       1
    18   14   15       2
    19   15   16       1
    20   16   17      ar
    21   16   22      ar
    22   17   18       1
    23   17   19      ar
    24   19   20      ar
    25   20   21      ar
    26   21   22      ar
    27   23   24       1
    28   24   25      ar
    29   24   26      ar
    30   24   27       1
    31   27   28       1
    32   28   29       1
    33   29   30       1
    34   29   31       1
    35   30   35       1
    36   31   32       1
    37   31   33       1
    38   33   34       1
    39   33   35       1
    40   35   36       1
    41   36   37      ar
    42   36   44      ar
    43   37   38      ar
    44   38   39       1
    45   38   42      ar
    46   39   40       2
    47   39   41      am
    48   42   43      ar
    49   43   44      ar
    50   45   46      ar
    51   45   47      ar
    52   45   48      ar
    53   43   72       1
    54    5   49       1
    55    5   50       1
    56    6   51       1
    57    8   52       1
    58    9   53       1
    59   10   54       1
    60   12   55       1
    61   14   56       1
    62   18   57       1
    63   18   58       1
    64   20   59       1
    65   44   73       1
    66   28   60       1
    67   28   61       1
    68   29   62       1
    69   31   63       1
    70   32   64       1
    71   33   65       1
    72   34   66       1
    73   35   67       1
    74   37   68       1
    75   41   69       1
    76   41   70       1
    77   42   71       1
@<TRIPOS>SUBSTRUCTURE
     1 NDP401      1 GROUP             4 D     NDP     0 **** NDP D 401
