@<TRIPOS>MOLECULE
2vzz_SCA_1_ligand
   90    92     1     0     0
SMALL
NO_CHARGES


@<TRIPOS>ATOM
     1 C8          13.4990    43.8740     8.7030 C.2          1 SCA601   0.0000
     2 N9          13.0030    45.0920     8.9400 N.pl3        1 SCA601   0.0000
     3 C4          11.7400    45.1080     8.4640 C.ar         1 SCA601   0.0000
     4 C5          11.4480    43.8480     7.9480 C.ar         1 SCA601   0.0000
     5 N7          12.5560    43.1170     8.1060 N.2          1 SCA601   0.0000
     6 N3          10.7940    46.0650     8.4330 N.ar         1 SCA601   0.0000
     7 C2           9.5800    45.8270     7.9230 C.ar         1 SCA601   0.0000
     8 N1           9.2730    44.6320     7.4170 N.ar         1 SCA601   0.0000
     9 C6          10.1720    43.6120     7.4090 C.ar         1 SCA601   0.0000
    10 N6           9.8140    42.4190     6.8790 N.pl3        1 SCA601   0.0000
    11 C1'         13.6980    46.2810     9.5790 C.3          1 SCA601   0.0000
    12 C2'         14.3140    46.2900    10.9870 C.3          1 SCA601   0.0000
    13 O2'         13.3770    46.6960    11.9890 O.3          1 SCA601   0.0000
    14 C3'         15.3290    47.4240    10.8330 C.3          1 SCA601   0.0000
    15 O3'         14.7050    48.7160    10.7310 O.3          1 SCA601   0.0000
    16 C4'         15.8840    47.1290     9.4500 C.3          1 SCA601   0.0000
    17 O4'         14.8300    46.4540     8.7370 O.3          1 SCA601   0.0000
    18 C5'         16.9820    46.0970     9.4170 C.3          1 SCA601   0.0000
    19 O5'         18.0390    46.5270    10.2070 O.3          1 SCA601   0.0000
    20 P1          19.2340    45.5390    10.3430 P.3          1 SCA601   0.0000
    21 O11         18.9470    44.4490    11.4620 O.co2        1 SCA601   0.0000
    22 O12         20.4720    46.3450    10.4640 O.co2        1 SCA601  -1.0000
    23 O6          19.2010    44.7260     8.9550 O.3          1 SCA601   0.0000
    24 P2          19.8220    43.2670     8.6910 P.3          1 SCA601   0.0000
    25 O21         21.0830    43.0540     9.6330 O.co2        1 SCA601   0.0000
    26 O22         18.7390    42.2660     8.6180 O.co2        1 SCA601  -1.0000
    27 O7          20.5390    43.4620     7.2950 O.3          1 SCA601   0.0000
    28 CPB         19.8500    43.8980     6.1080 C.3          1 SCA601   0.0000
    29 CPA         20.2440    42.9840     4.9340 C.3          1 SCA601   0.0000
    30 CP7         19.9350    41.5220     5.3330 C.3          1 SCA601   0.0000
    31 CP9         19.4050    43.4330     3.7120 C.3          1 SCA601   0.0000
    32 CP8         21.8030    43.1060     4.7590 C.3          1 SCA601   0.0000
    33 OP3         18.6220    41.3970     5.8710 O.3          1 SCA601   0.0000
    34 CP6         20.1590    40.4770     4.2300 C.2          1 SCA601   0.0000
    35 OP2         21.2930    40.1280     3.9380 O.2          1 SCA601   0.0000
    36 NP2         19.0560    39.9950     3.6570 N.am         1 SCA601   0.0000
    37 CP5         19.0580    38.9960     2.5780 C.3          1 SCA601   0.0000
    38 CP4         19.7490    39.4860     1.2990 C.3          1 SCA601   0.0000
    39 CP3         19.2880    40.8850     0.8580 C.2          1 SCA601   0.0000
    40 OP1         18.1080    41.2340     0.9970 O.2          1 SCA601   0.0000
    41 NP1         20.2290    41.6640     0.3230 N.am         1 SCA601   0.0000
    42 CP2         19.8870    43.0400    -0.0850 C.3          1 SCA601   0.0000
    43 CP1         19.7280    43.2200    -1.5910 C.3          1 SCA601   0.0000
    44 P3          15.0080    50.0630    11.6850 P.3          1 SCA601   0.0000
    45 O31         14.0430    51.2270    11.0950 O.co2        1 SCA601   0.0000
    46 O32         14.3680    49.5250    13.0550 O.co2        1 SCA601  -1.0000
    47 O33         16.4220    50.5560    11.8170 O.co2        1 SCA601  -1.0000
    48 S           19.3820    45.0160    -1.8620 S.3          1 SCA601   0.0000
    49 CS1         21.0550    45.6040    -1.8910 C.2          1 SCA601   0.0000
    50 OS1         21.9880    44.8120    -2.0360 O.2          1 SCA601   0.0000
    51 CS2         21.2820    47.1150    -1.7240 C.3          1 SCA601   0.0000
    52 CS3         21.6790    47.3510    -0.2580 C.3          1 SCA601   0.0000
    53 CS4         23.1320    47.8830    -0.0910 C.2          1 SCA601   0.0000
    54 OS4         23.3870    48.9750    -0.6390 O.co2        1 SCA601   0.0000
    55 OS5         23.9350    47.2070     0.5850 O.co2        1 SCA601  -1.0000
    56 H1          14.4241    43.5714     8.9323 H            1 SCA601   0.0000
    57 H2           8.8941    46.5547     7.9213 H            1 SCA601   0.0000
    58 H3           8.8949    42.2934     6.5057 H            1 SCA601   0.0000
    59 H4          10.4687    41.6633     6.8608 H            1 SCA601   0.0000
    60 H1'         13.1071    47.0823     9.4856 H            1 SCA601   0.0000
    61 H2'         14.7526    45.4199    11.2118 H            1 SCA601   0.0000
    62 H7          13.7161    47.5162    12.4497 H            1 SCA601   0.0000
    63 H3'         16.0365    47.3988    11.5393 H            1 SCA601   0.0000
    64 H4'         16.1599    47.9686     8.9821 H            1 SCA601   0.0000
    65 H5'1        17.2968    45.9740     8.4758 H            1 SCA601   0.0000
    66 H5'2        16.6342    45.2278     9.7684 H            1 SCA601   0.0000
    67 HPB1        20.1070    44.8415     5.8989 H            1 SCA601   0.0000
    68 HPB2        18.8623    43.8465     6.2559 H            1 SCA601   0.0000
    69 HP7         20.5668    41.2915     6.0731 H            1 SCA601   0.0000
    70 HP91        19.6320    42.8613     2.9236 H            1 SCA601   0.0000
    71 HP92        18.4320    43.3388     3.9229 H            1 SCA601   0.0000
    72 HP93        19.6092    44.3888     3.5005 H            1 SCA601   0.0000
    73 HP81        22.1000    42.5240     4.0020 H            1 SCA601   0.0000
    74 HP82        22.0430    44.0567     4.5626 H            1 SCA601   0.0000
    75 HP83        22.2568    42.8148     5.6012 H            1 SCA601   0.0000
    76 HP3         18.6533    41.5321     6.8613 H            1 SCA601   0.0000
    77 HP2         18.1727    40.3338     3.9810 H            1 SCA601   0.0000
    78 HP51        18.1104    38.7644     2.3581 H            1 SCA601   0.0000
    79 HP52        19.5341    38.1788     2.9029 H            1 SCA601   0.0000
    80 HP41        19.5500    38.8392     0.5627 H            1 SCA601   0.0000
    81 HP42        20.7354    39.5131     1.4613 H            1 SCA601   0.0000
    82 HP1         21.1591    41.3182     0.1993 H            1 SCA601   0.0000
    83 HP21        20.6136    43.6509     0.2296 H            1 SCA601   0.0000
    84 HP22        19.0252    43.2931     0.3545 H            1 SCA601   0.0000
    85 HP11        18.9670    42.6656    -1.9280 H            1 SCA601   0.0000
    86 HP12        20.5687    42.9539    -2.0626 H            1 SCA601   0.0000
    87 HS21        20.4419    47.6140    -1.9368 H            1 SCA601   0.0000
    88 HS22        22.0147    47.4214    -2.3317 H            1 SCA601   0.0000
    89 HS31        21.5995    46.4850     0.2356 H            1 SCA601   0.0000
    90 HS32        21.0490    48.0192     0.1377 H            1 SCA601   0.0000
@<TRIPOS>BOND
     1    1    2       1
     2    1    5       2
     3    2    3       1
     4    2   11       1
     5    3    4      ar
     6    3    6      ar
     7    4    5       1
     8    4    9      ar
     9    6    7      ar
    10    7    8      ar
    11    8    9      ar
    12    9   10       1
    13   11   12       1
    14   11   17       1
    15   12   13       1
    16   12   14       1
    17   14   15       1
    18   14   16       1
    19   15   44       1
    20   16   17       1
    21   16   18       1
    22   18   19       1
    23   19   20       1
    24   20   21      ar
    25   20   22      ar
    26   20   23       1
    27   23   24       1
    28   24   25      ar
    29   24   26      ar
    30   24   27       1
    31   27   28       1
    32   28   29       1
    33   29   30       1
    34   29   31       1
    35   29   32       1
    36   30   33       1
    37   30   34       1
    38   34   35       2
    39   34   36      am
    40   36   37       1
    41   37   38       1
    42   38   39       1
    43   39   40       2
    44   39   41      am
    45   41   42       1
    46   42   43       1
    47   43   48       1
    48   44   45      ar
    49   44   46      ar
    50   44   47      ar
    51   48   49       1
    52   49   50       2
    53   49   51       1
    54   51   52       1
    55   52   53       1
    56   53   54      ar
    57   53   55      ar
    58    1   56       1
    59    7   57       1
    60   10   58       1
    61   10   59       1
    62   11   60       1
    63   12   61       1
    64   13   62       1
    65   14   63       1
    66   16   64       1
    67   18   65       1
    68   18   66       1
    69   51   87       1
    70   52   90       1
    71   28   67       1
    72   28   68       1
    73   30   69       1
    74   31   70       1
    75   31   71       1
    76   31   72       1
    77   32   73       1
    78   32   74       1
    79   32   75       1
    80   33   76       1
    81   36   77       1
    82   37   78       1
    83   37   79       1
    84   38   80       1
    85   38   81       1
    86   41   82       1
    87   42   83       1
    88   42   84       1
    89   43   85       1
    90   43   86       1
    91   52   89       1
    92   51   88       1
@<TRIPOS>SUBSTRUCTURE
     1 SCA601      1 GROUP             4 A     SCA     0 **** SCA A 601
