@<TRIPOS>MOLECULE
4kfq_KFQ_2_ligand
   21    23     1     0     0
SMALL
NO_CHARGES


@<TRIPOS>ATOM
     1 OAA          8.0830    61.5580     4.7520 O.2          1 KFQ301   0.0000
     2 CAJ          8.3300    61.7850     5.9640 C.2          1 KFQ301   0.0000
     3 CAN          8.4530    63.1420     6.4320 C.2          1 KFQ301   0.0000
     4 NAG          8.3220    64.2240     5.6800 N.2          1 KFQ301   0.0000
     5 NAH          8.5170    65.2870     6.5050 N.pl3        1 KFQ301   0.0000
     6 CAK          8.7630    64.8350     7.7190 C.2          1 KFQ301   0.0000
     7 SAB          9.0310    65.9050     9.0690 S.2          1 KFQ301   0.0000
     8 NAO          8.7340    63.4560     7.7370 N.pl3        1 KFQ301   0.0000
     9 CAM          8.9410    62.4600     8.7310 C.ar         1 KFQ301   0.0000
    10 CAF          9.2380    62.7130    10.0820 C.ar         1 KFQ301   0.0000
    11 CAD          9.4120    61.6530    10.9690 C.ar         1 KFQ301   0.0000
    12 CAC          9.2900    60.3290    10.5060 C.ar         1 KFQ301   0.0000
    13 CAE          9.0010    60.0740     9.1750 C.ar         1 KFQ301   0.0000
    14 CAL          8.8160    61.1320     8.2750 C.ar         1 KFQ301   0.0000
    15 NAI          8.5240    60.8590     6.9260 N.pl3        1 KFQ301   0.0000
    16 HAH          8.4801    66.2495     6.2363 H            1 KFQ301   0.0000
    17 HAF          9.3244    63.6550    10.4064 H            1 KFQ301   0.0000
    18 HAD          9.6226    61.8317    11.9301 H            1 KFQ301   0.0000
    19 HAC          9.4128    59.5673    11.1422 H            1 KFQ301   0.0000
    20 HAE          8.9240    59.1297     8.8550 H            1 KFQ301   0.0000
    21 HAI          8.4544    59.8982     6.6577 H            1 KFQ301   0.0000
@<TRIPOS>BOND
     1    1    2       2
     2    2    3       1
     3    2   15       1
     4    3    4       2
     5    3    8       1
     6    4    5       1
     7    5    6       1
     8    6    7       2
     9    6    8       1
    10    8    9       1
    11    9   10      ar
    12    9   14      ar
    13   10   11      ar
    14   11   12      ar
    15   12   13      ar
    16   13   14      ar
    17   14   15       1
    18    5   16       1
    19   10   17       1
    20   11   18       1
    21   12   19       1
    22   13   20       1
    23   15   21       1
@<TRIPOS>SUBSTRUCTURE
     1 KFQ301      1 GROUP             4 B     KFQ     0 **** KFQ B 301
