@<TRIPOS>MOLECULE
./coach420/2zcp/ligand.pdb
 47 44 0 0 0
SMALL
GASTEIGER

@<TRIPOS>ATOM
      1  C1        54.8110   -7.0020   23.5000 C.3   657  FPS657      0.0942
      2  S1        55.6860   -6.4670   25.0160 S.3   657  FPS657     -0.0237
      3  C2        53.5770   -7.5520   23.8300 C.2   657  FPS657     -0.0224
      4  C3        53.3420   -8.8200   24.3510 C.2   657  FPS657     -0.0470
      5  C4        54.4980   -9.7960   24.5880 C.3   657  FPS657      0.0261
      6  C5        51.9100   -9.2620   24.6600 C.3   657  FPS657      0.0264
      7  C6        51.1860   -9.6200   23.3620 C.3   657  FPS657      0.0297
      8  C7        51.6350  -10.7940   22.7640 C.2   657  FPS657     -0.0342
      9  C8        52.3210  -10.9250   21.5610 C.2   657  FPS657     -0.0478
     10  C10       52.6940  -12.3230   21.0620 C.3   657  FPS657      0.0263
     11  C9        52.6800   -9.6970   20.7230 C.3   657  FPS657      0.0260
     12  C11       54.1920  -12.6240   21.0060 C.3   657  FPS657      0.0297
     13  C12       54.3430  -13.9120   20.5030 C.2   657  FPS657     -0.0342
     14  C13       55.3980  -14.4440   19.7690 C.2   657  FPS657     -0.0478
     15  C14       55.3410  -15.9000   19.3050 C.3   657  FPS657      0.0260
     16  C15       56.6370  -13.6060   19.4450 C.3   657  FPS657      0.0260
     17  PA        56.7760   -4.9870   24.3900 P.3   657  FPS657      0.4273
     18  O1A       57.6500   -5.4940   23.1360 O.2   657  FPS657     -0.2431
     19  O2A       57.6470   -4.4840   25.4780 O.3   657  FPS657     -0.1309
     20  O3A       55.7800   -3.8260   23.8830 O.3   657  FPS657     -0.1955
     21  PB        55.1380   -3.7240   22.4080 P.3   657  FPS657      0.5394
     22  O1B       55.3990   -2.2180   21.9030 O.3   657  FPS657     -0.1143
     23  O2B       55.9820   -4.6810   21.4260 O.2   657  FPS657     -0.2220
     24  O3B       53.6920   -4.0420   22.4400 O.3   657  FPS657     -0.1143
     25  S1        56.9140   -9.8280   21.4730 S.3   658  FPS658      0.0417
     26  C2        57.8950  -11.1470   23.4960 C.3   658  FPS658      0.0000
     27  C3        57.6180  -11.4740   24.8190 C.3   658  FPS658      0.0003
     28  C4        57.4620  -10.3760   25.8720 C.3   658  FPS658      0.0000
     29  C5        57.4880  -12.9470   25.2180 C.3   658  FPS658      0.0046
     30  C6        56.4420  -13.6460   24.3460 C.3   658  FPS658      0.0254
     31  C7        56.3130  -15.0010   24.6350 C.2   658  FPS658     -0.0346
     32  C8        56.6850  -16.0490   23.8000 C.2   658  FPS658     -0.0478
     33  C10       56.4730  -17.4990   24.2410 C.3   658  FPS658      0.0263
     34  C9        57.3210  -15.7730   22.4360 C.3   658  FPS658      0.0260
     35  C11       57.7820  -18.2910   24.2550 C.3   658  FPS658      0.0297
     36  C12       57.5170  -19.6370   24.4780 C.2   658  FPS658     -0.0342
     37  C13       57.7210  -20.6530   23.5530 C.2   658  FPS658     -0.0478
     38  C14       57.3750  -22.0970   23.9170 C.3   658  FPS658      0.0260
     39  C15       58.3310  -20.3350   22.1850 C.3   658  FPS658      0.0260
     40  PA        57.6630   -8.5020   20.2710 P.3   658  FPS658      0.4371
     41  O1A       57.1900   -7.0690   20.8250 O.3   658  FPS658     -0.1304
     42  O2A       57.2140   -8.7200   18.8800 O.2   658  FPS658     -0.2422
     43  O3A       59.2720   -8.5870   20.3850 O.3   658  FPS658     -0.1949
     44  PB        60.2220   -7.2840   20.4670 P.3   658  FPS658      0.5394
     45  O1B       61.5890   -7.8150   21.1260 O.3   658  FPS658     -0.1143
     46  O2B       60.5760   -6.8190   18.9690 O.2   658  FPS658     -0.2220
     47  O3B       59.6210   -6.2000   21.2740 O.3   658  FPS658     -0.1143
@<TRIPOS>BOND
     1     1     3    1
     2     1     2    1
     3     2    17    1
     4     3     4    2
     5     4     5    1
     6     4     6    1
     7     6     7    1
     8     7     8    1
     9     8     9    2
    10     9    11    1
    11     9    10    1
    12    10    12    1
    13    12    13    1
    14    13    14    2
    15    14    15    1
    16    14    16    1
    17    17    18    2
    18    17    20    1
    19    17    19    1
    20    20    21    1
    21    21    23    2
    22    21    22    1
    23    21    24    1
    24    25    40    1
    25    26    27    1
    26    27    29    1
    27    27    28    1
    28    29    30    1
    29    30    31    1
    30    31    32    2
    31    32    34    1
    32    32    33    1
    33    33    35    1
    34    35    36    1
    35    36    37    2
    36    37    39    1
    37    37    38    1
    38    40    42    2
    39    40    43    1
    40    40    41    1
    41    43    44    1
    42    44    46    2
    43    44    45    1
    44    44    47    1
