@<TRIPOS>MOLECULE
3pnd_FAD_4_ligand
   84    89     1     0     0
SMALL
NO_CHARGES


@<TRIPOS>ATOM
     1 PA          -1.9470   119.5800    51.2020 P.3          1 FAD500   0.0000
     2 O1A         -2.7270   118.2900    51.0890 O.co2        1 FAD500   0.0000
     3 O2A         -1.0910   119.5660    52.4450 O.co2        1 FAD500  -1.0000
     4 O5B         -2.9590   120.8400    51.2280 O.3          1 FAD500   0.0000
     5 C5B         -3.9670   121.0240    50.2520 C.3          1 FAD500   0.0000
     6 C4B         -5.2880   120.4400    50.7520 C.3          1 FAD500   0.0000
     7 O4B         -5.8350   121.2220    51.8010 O.3          1 FAD500   0.0000
     8 C3B         -6.3510   120.3710    49.6690 C.3          1 FAD500   0.0000
     9 O3B         -6.3500   119.1090    49.0420 O.3          1 FAD500   0.0000
    10 C2B         -7.6490   120.6260    50.4100 C.3          1 FAD500   0.0000
    11 O2B         -8.2750   119.4130    50.7610 O.3          1 FAD500   0.0000
    12 C1B         -7.2390   121.3670    51.6760 C.3          1 FAD500   0.0000
    13 N9A         -7.5650   122.8100    51.6130 N.pl3        1 FAD500   0.0000
    14 C8A         -7.7560   123.5700    50.4870 C.2          1 FAD500   0.0000
    15 N7A         -8.0240   124.8420    50.8590 N.2          1 FAD500   0.0000
    16 C5A         -8.0060   124.9220    52.2060 C.ar         1 FAD500   0.0000
    17 C6A         -8.2130   125.9840    53.0910 C.ar         1 FAD500   0.0000
    18 N6A         -8.0660   127.2350    52.6600 N.pl3        1 FAD500   0.0000
    19 N1A         -8.1310   125.7530    54.4500 N.ar         1 FAD500   0.0000
    20 C2A         -7.8410   124.4870    54.9220 C.ar         1 FAD500   0.0000
    21 N3A         -7.6370   123.4430    54.0370 N.ar         1 FAD500   0.0000
    22 C4A         -7.7170   123.6500    52.6950 C.ar         1 FAD500   0.0000
    23 N1          -4.5240   111.8080    48.9730 N.2          1 FAD500   0.0000
    24 C2          -4.7390   110.8270    48.0230 C.2          1 FAD500   0.0000
    25 O2          -4.4870   111.0580    46.8450 O.2          1 FAD500   0.0000
    26 N3          -5.2390   109.5930    48.3960 N.pl3        1 FAD500   0.0000
    27 C4          -5.5230   109.3350    49.7250 C.2          1 FAD500   0.0000
    28 O4          -5.9680   108.2340    50.0480 O.2          1 FAD500   0.0000
    29 C4X         -5.3040   110.3210    50.6880 C.2          1 FAD500   0.0000
    30 N5          -5.5870   110.0700    52.0170 N.2          1 FAD500   0.0000
    31 C5X         -5.3740   111.0450    52.9720 C.ar         1 FAD500   0.0000
    32 C6          -5.6700   110.7700    54.3060 C.ar         1 FAD500   0.0000
    33 C7          -5.4610   111.7370    55.2870 C.ar         1 FAD500   0.0000
    34 C7M         -5.7850   111.4110    56.7190 C.3          1 FAD500   0.0000
    35 C8          -4.9570   112.9900    54.9240 C.ar         1 FAD500   0.0000
    36 C8M         -4.7170   114.0600    55.9490 C.3          1 FAD500   0.0000
    37 C9          -4.6660   113.2620    53.5880 C.ar         1 FAD500   0.0000
    38 C9A         -4.8700   112.2950    52.5990 C.ar         1 FAD500   0.0000
    39 N10         -4.5800   112.5560    51.2590 N.pl3        1 FAD500   0.0000
    40 C10         -4.8010   111.5680    50.3080 C.2          1 FAD500   0.0000
    41 C1'         -3.7700   113.7680    50.8710 C.3          1 FAD500   0.0000
    42 C2'         -2.2760   113.4490    50.9680 C.3          1 FAD500   0.0000
    43 O2'         -1.7660   113.9280    52.1950 O.3          1 FAD500   0.0000
    44 C3'         -1.4380   113.9640    49.7940 C.3          1 FAD500   0.0000
    45 O3'         -0.0950   113.5860    50.0120 O.3          1 FAD500   0.0000
    46 C4'         -1.5300   115.4760    49.5940 C.3          1 FAD500   0.0000
    47 O4'         -2.4500   115.7430    48.5570 O.3          1 FAD500   0.0000
    48 C5'         -0.1850   116.1150    49.2520 C.3          1 FAD500   0.0000
    49 O5'         -0.1620   117.4420    49.7300 O.3          1 FAD500   0.0000
    50 P           -0.6770   118.6740    48.8220 P.3          1 FAD500   0.0000
    51 O1P          0.4420   119.1500    47.9260 O.co2        1 FAD500   0.0000
    52 O2P         -1.8830   118.3010    47.9900 O.co2        1 FAD500  -1.0000
    53 O3P         -1.0430   119.8350    49.8860 O.3          1 FAD500   0.0000
    54 H5B1        -3.6987   120.5615    49.4070 H            1 FAD500   0.0000
    55 H5B2        -4.0825   122.0014    50.0748 H            1 FAD500   0.0000
    56 H4B         -5.1201   119.5159    51.0954 H            1 FAD500   0.0000
    57 H3B         -6.1966   121.0901    48.9914 H            1 FAD500   0.0000
    58 H5          -5.6431   118.5332    49.4528 H            1 FAD500   0.0000
    59 H2B         -8.2628   121.1898    49.8574 H            1 FAD500   0.0000
    60 H7          -8.7993   119.5399    51.6030 H            1 FAD500   0.0000
    61 H1B         -7.6908   120.9550    52.4673 H            1 FAD500   0.0000
    62 H8A         -7.7053   123.2376    49.5452 H            1 FAD500   0.0000
    63 H6A1        -8.2123   128.0003    53.2869 H            1 FAD500   0.0000
    64 H6A2        -7.8093   127.4094    51.7094 H            1 FAD500   0.0000
    65 H2A         -7.7783   124.3247    55.9068 H            1 FAD500   0.0000
    66 H13         -5.3953   108.8872    47.7051 H            1 FAD500   0.0000
    67 H14         -6.0342   109.8741    54.5603 H            1 FAD500   0.0000
    68 H7M1        -5.5814   112.2024    57.2953 H            1 FAD500   0.0000
    69 H7M2        -6.7553   111.1823    56.7975 H            1 FAD500   0.0000
    70 H7M3        -5.2337   110.6315    57.0163 H            1 FAD500   0.0000
    71 H8M1        -4.3577   114.8778    55.4994 H            1 FAD500   0.0000
    72 H8M2        -5.5779   114.2823    56.4067 H            1 FAD500   0.0000
    73 H8M3        -4.0555   113.7328    56.6238 H            1 FAD500   0.0000
    74 H21         -4.3068   114.1600    53.3339 H            1 FAD500   0.0000
    75 H1'1        -3.9883   114.5241    51.4879 H            1 FAD500   0.0000
    76 H1'2        -3.9930   114.0291    49.9318 H            1 FAD500   0.0000
    77 H2'         -2.1869   112.4530    50.9799 H            1 FAD500   0.0000
    78 H25         -2.2851   114.7338    52.4799 H            1 FAD500   0.0000
    79 H3'         -1.7587   113.5166    48.9591 H            1 FAD500   0.0000
    80 H27          0.3612   113.4539    49.1320 H            1 FAD500   0.0000
    81 H4'         -1.8730   115.8885    50.4379 H            1 FAD500   0.0000
    82 H29         -2.1882   116.5866    48.0881 H            1 FAD500   0.0000
    83 H5'1        -0.0584   116.1154    48.2600 H            1 FAD500   0.0000
    84 H5'2         0.5515   115.5927    49.6818 H            1 FAD500   0.0000
@<TRIPOS>BOND
     1    1    2      ar
     2    1    3      ar
     3    1    4       1
     4    1   53       1
     5    4    5       1
     6    5    6       1
     7    6    7       1
     8    6    8       1
     9    7   12       1
    10    8    9       1
    11    8   10       1
    12   10   11       1
    13   10   12       1
    14   12   13       1
    15   13   14       1
    16   13   22       1
    17   14   15       2
    18   15   16       1
    19   16   17      ar
    20   16   22      ar
    21   17   18       1
    22   17   19      ar
    23   19   20      ar
    24   20   21      ar
    25   21   22      ar
    26   23   24       1
    27   23   40       2
    28   24   25       2
    29   24   26       1
    30   26   27       1
    31   27   28       2
    32   27   29       1
    33   29   30       2
    34   29   40       1
    35   30   31       1
    36   31   32      ar
    37   31   38      ar
    38   32   33      ar
    39   33   34       1
    40   33   35      ar
    41   35   36       1
    42   35   37      ar
    43   37   38      ar
    44   38   39       1
    45   39   40       1
    46   39   41       1
    47   41   42       1
    48   42   43       1
    49   42   44       1
    50   44   45       1
    51   44   46       1
    52   46   47       1
    53   46   48       1
    54   48   49       1
    55   49   50       1
    56   50   51      ar
    57   50   52      ar
    58   50   53       1
    59   48   84       1
    60    5   54       1
    61    5   55       1
    62    6   56       1
    63    8   57       1
    64    9   58       1
    65   10   59       1
    66   11   60       1
    67   12   61       1
    68   14   62       1
    69   18   63       1
    70   18   64       1
    71   20   65       1
    72   26   66       1
    73   32   67       1
    74   34   68       1
    75   34   69       1
    76   34   70       1
    77   36   71       1
    78   36   72       1
    79   36   73       1
    80   37   74       1
    81   41   75       1
    82   41   76       1
    83   42   77       1
    84   43   78       1
    85   44   79       1
    86   45   80       1
    87   46   81       1
    88   47   82       1
    89   48   83       1
@<TRIPOS>SUBSTRUCTURE
     1 FAD500      1 GROUP             4 D     FAD     0 **** FAD D 500
