@<TRIPOS>MOLECULE
3pyz_ANP_1_ligand
   44    46     1     0     0
SMALL
NO_CHARGES


@<TRIPOS>ATOM
     1 PG          -7.4680    23.4470   -18.8300 P.3          1 ANP601   0.0000
     2 O1G         -8.0570    24.9180   -18.7540 O.co2        1 ANP601   0.0000
     3 O2G         -6.1990    23.2070   -17.8320 O.co2        1 ANP601  -1.0000
     4 O3G         -8.5680    22.4350   -18.5220 O.co2        1 ANP601  -1.0000
     5 PB          -6.1800    21.6060   -20.7760 P.3          1 ANP601   0.0000
     6 O1B         -5.6250    21.9060   -22.1690 O.co2        1 ANP601   0.0000
     7 O2B         -5.1360    21.5110   -19.5530 O.co2        1 ANP601  -1.0000
     8 N3B         -6.9520    23.1250   -20.4520 N.3          1 ANP601   0.0000
     9 PA          -7.7650    19.2990   -19.9860 P.3          1 ANP601   0.0000
    10 O1A         -7.1830    17.9060   -20.2630 O.co2        1 ANP601   0.0000
    11 O2A         -7.7530    19.7980   -18.4930 O.co2        1 ANP601  -1.0000
    12 O3A         -7.3420    20.5020   -20.9610 O.3          1 ANP601   0.0000
    13 O5'         -9.2890    19.1630   -20.4470 O.3          1 ANP601   0.0000
    14 C5'        -10.1070    20.3280   -20.2950 C.3          1 ANP601   0.0000
    15 C4'        -11.4690    20.1070   -20.9760 C.3          1 ANP601   0.0000
    16 O4'        -11.3240    20.2420   -22.4170 O.3          1 ANP601   0.0000
    17 C3'        -12.0540    18.7410   -20.7200 C.3          1 ANP601   0.0000
    18 O3'        -12.9210    18.7670   -19.5430 O.3          1 ANP601   0.0000
    19 C2'        -12.9090    18.5680   -21.9030 C.3          1 ANP601   0.0000
    20 O2'        -14.0880    19.4260   -21.7200 O.3          1 ANP601   0.0000
    21 C1'        -12.1180    19.1700   -23.0520 C.3          1 ANP601   0.0000
    22 N9         -11.1120    18.3740   -23.7740 N.pl3        1 ANP601   0.0000
    23 C8          -9.9990    17.7580   -23.3400 C.2          1 ANP601   0.0000
    24 N7          -9.3400    17.1940   -24.3710 N.2          1 ANP601   0.0000
    25 C5         -10.0740    17.4640   -25.4860 C.ar         1 ANP601   0.0000
    26 C6          -9.9240    17.1510   -26.8270 C.ar         1 ANP601   0.0000
    27 N6          -8.8660    16.4110   -27.3590 N.pl3        1 ANP601   0.0000
    28 N1         -10.8670    17.5980   -27.6540 N.ar         1 ANP601   0.0000
    29 C2         -11.9380    18.3390   -27.2230 C.ar         1 ANP601   0.0000
    30 N3         -12.1130    18.6340   -25.9300 N.ar         1 ANP601   0.0000
    31 C4         -11.1690    18.1900   -25.0750 C.ar         1 ANP601   0.0000
    32 H3B         -6.3080    23.8461   -20.7076 H            1 ANP601   0.0000
    33 H5'1        -9.6494    21.1112   -20.7160 H            1 ANP601   0.0000
    34 H5'2       -10.2488    20.5084   -19.3217 H            1 ANP601   0.0000
    35 H4'        -12.1108    20.8005   -20.6488 H            1 ANP601   0.0000
    36 H3'        -11.3498    18.0339   -20.6556 H            1 ANP601   0.0000
    37 H6         -12.5931    19.4616   -18.9027 H            1 ANP601   0.0000
    38 H2'        -13.1520    17.6114   -22.0642 H            1 ANP601   0.0000
    39 H8         -14.5755    19.1504   -20.8915 H            1 ANP601   0.0000
    40 H1'        -12.7515    19.5758   -23.7108 H            1 ANP601   0.0000
    41 H10         -9.7018    17.7232   -22.3858 H            1 ANP601   0.0000
    42 H11         -8.8289    16.2266   -28.3412 H            1 ANP601   0.0000
    43 H12         -8.1455    16.0654   -26.7578 H            1 ANP601   0.0000
    44 H13        -12.6047    18.6669   -27.8923 H            1 ANP601   0.0000
@<TRIPOS>BOND
     1    1    2      ar
     2    1    3      ar
     3    1    4      ar
     4    1    8       1
     5    5    6      ar
     6    5    7      ar
     7    5    8       1
     8    5   12       1
     9    9   10      ar
    10    9   11      ar
    11    9   12       1
    12    9   13       1
    13   13   14       1
    14   14   15       1
    15   15   16       1
    16   15   17       1
    17   16   21       1
    18   17   18       1
    19   17   19       1
    20   19   20       1
    21   19   21       1
    22   21   22       1
    23   22   23       1
    24   22   31       1
    25   23   24       2
    26   24   25       1
    27   25   26      ar
    28   25   31      ar
    29   26   27       1
    30   26   28      ar
    31   28   29      ar
    32   29   30      ar
    33   30   31      ar
    34   29   44       1
    35   27   43       1
    36   27   42       1
    37    8   32       1
    38   23   41       1
    39   14   33       1
    40   14   34       1
    41   15   35       1
    42   17   36       1
    43   18   37       1
    44   19   38       1
    45   20   39       1
    46   21   40       1
@<TRIPOS>SUBSTRUCTURE
     1 ANP601      1 GROUP             4 A     ANP     0 **** ANP A 601
