@<TRIPOS>MOLECULE
./coach420/1pnf/ligand.pdb
 29 30 0 0 0
SMALL
GASTEIGER

@<TRIPOS>ATOM
      1  C1       -42.0960  -15.2270  -34.6410 C.3   431  NDG431      0.2917
      2  C2       -40.8980  -14.2980  -35.0560 C.3   431  NDG431      0.1870
      3  C3       -40.4240  -13.5630  -33.7900 C.3   431  NDG431      0.2063
      4  C4       -41.5740  -12.8790  -33.0830 C.3   431  NDG431      0.1795
      5  C5       -42.7310  -13.8430  -32.8160 C.3   431  NDG431      0.1803
      6  C6       -43.9580  -13.2200  -32.1480 C.3   431  NDG431      0.2141
      7  C7       -39.3510  -15.0350  -36.8370 C.2   431  NDG431      0.2420
      8  C8       -38.2380  -16.0220  -37.1710 C.3   431  NDG431      0.0964
      9  O        -43.1410  -14.4500  -34.0630 O.3   431  NDG431     -0.3243
     10  O3       -39.4700  -12.5900  -34.1730 O.3   431  NDG431     -0.2184
     11  O4       -41.1470  -12.3670  -31.8010 O.3   431  NDG431     -0.3264
     12  O6       -44.5530  -12.2310  -32.9340 O.3   431  NDG431     -0.2176
     13  O7       -39.7520  -14.1900  -37.6470 O.2   431  NDG431     -0.2733
     14  N2       -39.8120  -15.1060  -35.5880 N.am  431  NDG431     -0.1991
     15  O1L      -41.7570  -16.1290  -33.6480 O.3   431  NDG431     -0.1879
     16  C1       -41.1940  -11.0030  -31.6640 C.3   432  NAG432      0.2586
     17  C2       -41.2980  -10.6610  -30.1780 C.3   432  NAG432      0.1842
     18  C3       -41.1980   -9.1510  -30.0180 C.3   432  NAG432      0.2094
     19  C4       -39.9340   -8.6180  -30.6830 C.3   432  NAG432      0.2136
     20  C5       -39.8600   -9.0740  -32.1350 C.3   432  NAG432      0.1834
     21  C6       -38.5380   -8.6960  -32.7520 C.3   432  NAG432      0.2142
     22  C7       -42.6550  -12.1440  -28.7980 C.2   432  NAG432      0.2420
     23  C8       -44.0530  -12.4670  -28.2900 C.3   432  NAG432      0.0964
     24  N2       -42.5740  -11.1060  -29.6290 N.am  432  NAG432     -0.1992
     25  O3       -41.1810   -8.8280  -28.6420 O.3   432  NAG432     -0.2183
     26  O4       -39.9350   -7.2000  -30.6350 O.3   432  NAG432     -0.2176
     27  O5       -39.9710  -10.5100  -32.2300 O.3   432  NAG432     -0.3262
     28  O6       -37.4790   -9.3720  -32.1210 O.3   432  NAG432     -0.2176
     29  O7       -41.6880  -12.8120  -28.4600 O.2   432  NAG432     -0.2733
@<TRIPOS>BOND
     1     1     2    1
     2     1     9    1
     3     1    15    1
     4     2    14    1
     5     2     3    1
     6     3    10    1
     7     3     4    1
     8     4     5    1
     9     4    11    1
    10     5     9    1
    11     5     6    1
    12     6    12    1
    13     7    13    2
    14     7     8    1
    15     7    14   am
    16    11    16    1
    17    16    27    1
    18    16    17    1
    19    17    18    1
    20    17    24    1
    21    18    19    1
    22    18    25    1
    23    19    20    1
    24    19    26    1
    25    20    21    1
    26    20    27    1
    27    21    28    1
    28    22    24   am
    29    22    29    2
    30    22    23    1
