@<TRIPOS>MOLECULE
4mo2_FAD_2_ligand
   84    89     1     0     0
SMALL
NO_CHARGES


@<TRIPOS>ATOM
     1 PA           9.6800    29.1540   -31.7820 P.3          1 FAD405   0.0000
     2 O1A          9.0430    28.1250   -31.0590 O.co2        1 FAD405   0.0000
     3 O2A          9.5940    28.9030   -33.3270 O.co2        1 FAD405  -1.0000
     4 O5B          8.9520    30.5530   -31.3790 O.3          1 FAD405   0.0000
     5 C5B          8.9630    31.6330   -32.3140 C.3          1 FAD405   0.0000
     6 C4B          7.7230    32.4220   -32.5060 C.3          1 FAD405   0.0000
     7 O4B          8.0350    33.6640   -33.0620 O.3          1 FAD405   0.0000
     8 C3B          6.7860    31.7510   -33.4220 C.3          1 FAD405   0.0000
     9 O3B          5.5160    31.7500   -32.8390 O.3          1 FAD405   0.0000
    10 C2B          6.7850    32.5450   -34.5720 C.3          1 FAD405   0.0000
    11 O2B          5.5280    32.5150   -35.1980 O.3          1 FAD405   0.0000
    12 C1B          7.1210    33.9030   -34.0660 C.3          1 FAD405   0.0000
    13 N9A          7.6080    34.7640   -35.1650 N.pl3        1 FAD405   0.0000
    14 C8A          8.5760    34.5460   -36.0670 C.2          1 FAD405   0.0000
    15 N7A          8.6540    35.6280   -36.8540 N.2          1 FAD405   0.0000
    16 C5A          7.7370    36.5360   -36.4520 C.ar         1 FAD405   0.0000
    17 C6A          7.3560    37.8250   -36.8800 C.ar         1 FAD405   0.0000
    18 N6A          8.0060    38.4310   -37.9800 N.pl3        1 FAD405   0.0000
    19 N1A          6.3680    38.4740   -36.2300 N.ar         1 FAD405   0.0000
    20 C2A          5.7460    37.9040   -35.1890 C.ar         1 FAD405   0.0000
    21 N3A          6.0830    36.6750   -34.7530 N.ar         1 FAD405   0.0000
    22 C4A          7.0660    35.9770   -35.3610 C.ar         1 FAD405   0.0000
    23 N1          12.3360    19.9930   -28.7440 N.2          1 FAD405   0.0000
    24 C2          12.2920    19.1030   -27.7470 C.2          1 FAD405   0.0000
    25 O2          12.8120    19.4400   -26.5190 O.2          1 FAD405   0.0000
    26 N3          11.7480    17.8850   -27.9080 N.pl3        1 FAD405   0.0000
    27 C4          11.2370    17.5350   -29.0910 C.2          1 FAD405   0.0000
    28 O4          10.6630    16.2370   -29.2560 O.2          1 FAD405   0.0000
    29 C4X         11.2600    18.4300   -30.1710 C.2          1 FAD405   0.0000
    30 N5          10.7590    18.1180   -31.3740 N.2          1 FAD405   0.0000
    31 C5X         10.8190    19.0360   -32.3710 C.ar         1 FAD405   0.0000
    32 C6          10.2950    18.7060   -33.6270 C.ar         1 FAD405   0.0000
    33 C7          10.3470    19.6410   -34.6700 C.ar         1 FAD405   0.0000
    34 C7M          9.7660    19.2830   -36.0690 C.3          1 FAD405   0.0000
    35 C8          10.9130    20.8770   -34.4560 C.ar         1 FAD405   0.0000
    36 C8M         10.9740    21.8920   -35.5730 C.3          1 FAD405   0.0000
    37 C9          11.4340    21.2040   -33.2030 C.ar         1 FAD405   0.0000
    38 C9A         11.3850    20.2800   -32.1610 C.ar         1 FAD405   0.0000
    39 N10         11.8850    20.5870   -30.9450 N.pl3        1 FAD405   0.0000
    40 C10         11.8330    19.6830   -29.9520 C.2          1 FAD405   0.0000
    41 C1'         12.4760    21.8800   -30.7200 C.3          1 FAD405   0.0000
    42 C2'         11.6090    23.0100   -30.3650 C.3          1 FAD405   0.0000
    43 O2'         10.3740    23.1010   -30.9250 O.3          1 FAD405   0.0000
    44 C3'         12.2780    24.2790   -29.9570 C.3          1 FAD405   0.0000
    45 O3'         12.9940    24.0630   -28.7900 O.3          1 FAD405   0.0000
    46 C4'         11.3190    25.4640   -29.7580 C.3          1 FAD405   0.0000
    47 O4'         10.5110    25.6700   -30.9030 O.3          1 FAD405   0.0000
    48 C5'         11.9980    26.7300   -29.4900 C.3          1 FAD405   0.0000
    49 O5'         11.1840    27.8760   -29.1030 O.3          1 FAD405   0.0000
    50 P           11.5030    29.2420   -29.7300 P.3          1 FAD405   0.0000
    51 O1P         10.6390    30.3170   -29.0240 O.co2        1 FAD405   0.0000
    52 O2P         13.0210    29.5660   -29.5790 O.co2        1 FAD405  -1.0000
    53 O3P         11.0720    29.1930   -31.3570 O.3          1 FAD405   0.0000
    54 H5B1         9.2081    31.2489   -33.2042 H            1 FAD405   0.0000
    55 H5B2         9.6746    32.2705   -32.0187 H            1 FAD405   0.0000
    56 H4B          7.2784    32.5589   -31.6208 H            1 FAD405   0.0000
    57 H3B          7.0883    30.8202   -33.6277 H            1 FAD405   0.0000
    58 H5           5.2212    32.6923   -32.6807 H            1 FAD405   0.0000
    59 H2B          7.4915    32.2309   -35.2062 H            1 FAD405   0.0000
    60 H7           4.8332    32.8605   -34.5673 H            1 FAD405   0.0000
    61 H1B          6.3009    34.3147   -33.6686 H            1 FAD405   0.0000
    62 H8A          9.1392    33.7229   -36.1395 H            1 FAD405   0.0000
    63 H6A1         7.7332    39.3449   -38.2805 H            1 FAD405   0.0000
    64 H6A2         8.7385    37.9456   -38.4573 H            1 FAD405   0.0000
    65 H2A          5.0142    38.4030   -34.7248 H            1 FAD405   0.0000
    66 H13         11.7258    17.2415   -27.1429 H            1 FAD405   0.0000
    67 H14          9.8852    17.8066   -33.7793 H            1 FAD405   0.0000
    68 H7M1         9.8860    20.0589   -36.6883 H            1 FAD405   0.0000
    69 H7M2        10.2467    18.4864   -36.4357 H            1 FAD405   0.0000
    70 H7M3         8.7921    19.0736   -35.9818 H            1 FAD405   0.0000
    71 H8M1        11.4145    22.7263   -35.2416 H            1 FAD405   0.0000
    72 H8M2        11.5012    21.5171   -36.3356 H            1 FAD405   0.0000
    73 H8M3        10.0468    22.1045   -35.8813 H            1 FAD405   0.0000
    74 H21         11.8435    22.1038   -33.0527 H            1 FAD405   0.0000
    75 H1'1        12.9560    22.1324   -31.5602 H            1 FAD405   0.0000
    76 H1'2        13.1372    21.7741   -29.9773 H            1 FAD405   0.0000
    77 H2'         11.3311    22.6968   -29.4569 H            1 FAD405   0.0000
    78 H25         10.1140    24.0634   -31.0042 H            1 FAD405   0.0000
    79 H3'         12.9285    24.5276   -30.6747 H            1 FAD405   0.0000
    80 H27         13.7859    24.6732   -28.7670 H            1 FAD405   0.0000
    81 H4'         10.7207    25.2579   -28.9837 H            1 FAD405   0.0000
    82 H29          9.8993    26.4450   -30.7443 H            1 FAD405   0.0000
    83 H5'1        12.4924    26.9839   -30.3214 H            1 FAD405   0.0000
    84 H5'2        12.6511    26.5662   -28.7507 H            1 FAD405   0.0000
@<TRIPOS>BOND
     1    1    2      ar
     2    1    3      ar
     3    1    4       1
     4    1   53       1
     5    4    5       1
     6    5    6       1
     7    6    7       1
     8    6    8       1
     9    7   12       1
    10    8    9       1
    11    8   10       1
    12   10   11       1
    13   10   12       1
    14   12   13       1
    15   13   14       1
    16   13   22       1
    17   14   15       2
    18   15   16       1
    19   16   17      ar
    20   16   22      ar
    21   17   18       1
    22   17   19      ar
    23   19   20      ar
    24   20   21      ar
    25   21   22      ar
    26   23   24       1
    27   23   40       2
    28   24   25       2
    29   24   26       1
    30   26   27       1
    31   27   28       2
    32   27   29       1
    33   29   30       2
    34   29   40       1
    35   30   31       1
    36   31   32      ar
    37   31   38      ar
    38   32   33      ar
    39   33   34       1
    40   33   35      ar
    41   35   36       1
    42   35   37      ar
    43   37   38      ar
    44   38   39       1
    45   39   40       1
    46   39   41       1
    47   41   42       1
    48   42   43       1
    49   42   44       1
    50   44   45       1
    51   44   46       1
    52   46   47       1
    53   46   48       1
    54   48   49       1
    55   49   50       1
    56   50   51      ar
    57   50   52      ar
    58   50   53       1
    59   48   84       1
    60    5   54       1
    61    5   55       1
    62    6   56       1
    63    8   57       1
    64    9   58       1
    65   10   59       1
    66   11   60       1
    67   12   61       1
    68   14   62       1
    69   18   63       1
    70   18   64       1
    71   20   65       1
    72   26   66       1
    73   32   67       1
    74   34   68       1
    75   34   69       1
    76   34   70       1
    77   36   71       1
    78   36   72       1
    79   36   73       1
    80   37   74       1
    81   41   75       1
    82   41   76       1
    83   42   77       1
    84   43   78       1
    85   44   79       1
    86   45   80       1
    87   46   81       1
    88   47   82       1
    89   48   83       1
@<TRIPOS>SUBSTRUCTURE
     1 FAD405      1 GROUP             4 A     FAD     0 **** FAD A 405
