@<TRIPOS>MOLECULE
2xei_ARK_1_ligand
   77    78     1     0     0
SMALL
NO_CHARGES


@<TRIPOS>ATOM
     1 OAA         13.8580    48.6980    40.2150 O.co2        1 ARK1770   0.0000
     2 CBH         13.8130    47.4440    40.0450 C.2          1 ARK1770   0.0000
     3 OAG         12.9960    46.8660    39.2970 O.co2        1 ARK1770  -1.0000
     4 CAV         14.8560    46.5360    40.8130 C.3          1 ARK1770   0.0000
     5 CAX         14.5740    45.0180    41.0420 C.3          1 ARK1770   0.0000
     6 CBQ         15.8840    44.2070    41.3900 C.3          1 ARK1770   0.0000
     7 CBJ         16.8710    44.4170    40.1890 C.2          1 ARK1770   0.0000
     8 OAI         16.7740    43.6240    39.1930 O.co2        1 ARK1770   0.0000
     9 OAC         17.7270    45.3520    40.2580 O.co2        1 ARK1770  -1.0000
    10 NBE         16.5830    44.7700    42.5550 N.am         1 ARK1770   0.0000
    11 CBK         17.8350    44.4130    42.8540 C.2          1 ARK1770   0.0000
    12 OAD         18.3320    43.3920    42.3470 O.2          1 ARK1770   0.0000
    13 N           18.4540    45.1910    43.7420 N.am         1 ARK1770   0.0000
    14 CA          19.7960    44.9610    44.2420 C.3          1 ARK1770   0.0000
    15 C           19.8960    45.5560    45.6450 C.2          1 ARK1770   0.0000
    16 OXT         19.4160    46.7110    45.8000 O.co2        1 ARK1770   0.0000
    17 O           20.5170    44.8510    46.5040 O.co2        1 ARK1770  -1.0000
    18 CB          20.6690    45.8260    43.2640 C.3          1 ARK1770   0.0000
    19 CAP         22.1130    45.3160    43.2340 C.3          1 ARK1770   0.0000
    20 CAQ         23.0570    46.4900    43.0370 C.3          1 ARK1770   0.0000
    21 CAY         24.0150    46.2750    41.8720 C.3          1 ARK1770   0.0000
    22 NBR         24.7260    47.5610    41.6450 N.pl3        1 ARK1770   0.0000
    23 CAO         25.1310    48.3660    42.6430 C.2          1 ARK1770   0.0000
    24 NBB         25.0110    48.0450    40.5320 N.2          1 ARK1770   0.0000
    25 NBA         25.5910    49.1330    40.6720 N.2          1 ARK1770   0.0000
    26 CBL         25.6940    49.3760    41.9910 C.2          1 ARK1770   0.0000
    27 CAZ         26.2810    50.4960    42.6020 C.3          1 ARK1770   0.0000
    28 OBG         25.4330    51.6030    42.9880 O.3          1 ARK1770   0.0000
    29 CAU         25.3380    51.6780    44.4300 C.3          1 ARK1770   0.0000
    30 CAT         25.2900    53.1410    44.9550 C.3          1 ARK1770   0.0000
    31 OBF         26.6030    53.5570    45.4100 O.3          1 ARK1770   0.0000
    32 CAS         26.7750    53.2150    46.8050 C.3          1 ARK1770   0.0000
    33 CAR         28.0000    52.3310    47.0920 C.3          1 ARK1770   0.0000
    34 NBC         29.0940    53.1810    47.5930 N.pl3        1 ARK1770   0.0000
    35 CBN         30.1790    52.7280    48.2440 C.ar         1 ARK1770   0.0000
    36 CAM         30.0740    52.0780    49.4750 C.ar         1 ARK1770   0.0000
    37 CAL         31.2230    51.6420    50.1160 C.ar         1 ARK1770   0.0000
    38 CBM         32.4800    51.8650    49.5500 C.ar         1 ARK1770   0.0000
    39 NBS         33.6230    51.4540    50.1130 N.2          1 ARK1770   1.0000
    40 OAJ         34.8510    51.6570    49.4320 O.co2        1 ARK1770   0.0000
    41 OAE         33.6620    50.6920    51.3290 O.co2        1 ARK1770  -1.0000
    42 CAN         32.5800    52.5240    48.3420 C.ar         1 ARK1770   0.0000
    43 CBO         31.4430    52.9590    47.6900 C.ar         1 ARK1770   0.0000
    44 NBT         31.6050    53.5650    46.5170 N.2          1 ARK1770   1.0000
    45 OAK         32.9100    53.7050    45.9770 O.co2        1 ARK1770   0.0000
    46 OAF         30.4760    53.9710    45.7520 O.co2        1 ARK1770  -1.0000
    47 HAV1        14.9777    46.9436    41.7180 H            1 ARK1770   0.0000
    48 HAV2        15.7145    46.5934    40.3033 H            1 ARK1770   0.0000
    49 HAX1        14.1723    44.6370    40.2093 H            1 ARK1770   0.0000
    50 HAX2        13.9268    44.9223    41.7983 H            1 ARK1770   0.0000
    51 HBQ         15.6821    43.2370    41.5251 H            1 ARK1770   0.0000
    52 HBE         16.1113    45.4338    43.1353 H            1 ARK1770   0.0000
    53 H7          17.9589    45.9883    44.0873 H            1 ARK1770   0.0000
    54 HA          20.0482    43.9936    44.2211 H            1 ARK1770   0.0000
    55 HB1         20.6630    46.7772    43.5725 H            1 ARK1770   0.0000
    56 HB2         20.2823    45.7717    42.3434 H            1 ARK1770   0.0000
    57 HAP1        22.2230    44.6689    42.4796 H            1 ARK1770   0.0000
    58 HAP2        22.3239    44.8594    44.0983 H            1 ARK1770   0.0000
    59 HAQ1        23.5911    46.6166    43.8729 H            1 ARK1770   0.0000
    60 HAQ2        22.5152    47.3117    42.8600 H            1 ARK1770   0.0000
    61 HAY1        23.5046    46.0162    41.0519 H            1 ARK1770   0.0000
    62 HAY2        24.6719    45.5553    42.0968 H            1 ARK1770   0.0000
    63 HAO         25.0327    48.2363    43.6297 H            1 ARK1770   0.0000
    64 HAZ1        26.9620    50.8557    41.9642 H            1 ARK1770   0.0000
    65 HAZ2        26.7382    50.1730    43.4306 H            1 ARK1770   0.0000
    66 HAU1        26.1346    51.2220    44.8269 H            1 ARK1770   0.0000
    67 HAU2        24.5051    51.2068    44.7203 H            1 ARK1770   0.0000
    68 HAT1        24.6442    53.1970    45.7164 H            1 ARK1770   0.0000
    69 HAT2        24.9895    53.7462    44.2178 H            1 ARK1770   0.0000
    70 HAS1        25.9576    52.7269    47.1111 H            1 ARK1770   0.0000
    71 HAS2        26.8715    54.0631    47.3260 H            1 ARK1770   0.0000
    72 HAR1        28.2884    51.8735    46.2509 H            1 ARK1770   0.0000
    73 HAR2        27.7652    51.6451    47.7808 H            1 ARK1770   0.0000
    74 HBC         29.0242    54.1664    47.4374 H            1 ARK1770   0.0000
    75 HAM         29.1771    51.9282    49.8910 H            1 ARK1770   0.0000
    76 HAL         31.1512    51.1637    50.9912 H            1 ARK1770   0.0000
    77 HAN         33.4796    52.6873    47.9369 H            1 ARK1770   0.0000
@<TRIPOS>BOND
     1    1    2      ar
     2    2    3      ar
     3    2    4       1
     4    4    5       1
     5    5    6       1
     6    6    7       1
     7    6   10       1
     8    7    8      ar
     9    7    9      ar
    10   10   11      am
    11   11   12       2
    12   11   13      am
    13   13   14       1
    14   14   15       1
    15   14   18       1
    16   15   16      ar
    17   15   17      ar
    18   18   19       1
    19   19   20       1
    20   20   21       1
    21   21   22       1
    22   22   23       1
    23   22   24       1
    24   23   26       2
    25   24   25       2
    26   25   26       1
    27   26   27       1
    28   27   28       1
    29   28   29       1
    30   29   30       1
    31   30   31       1
    32   31   32       1
    33   32   33       1
    34   33   34       1
    35   34   35       1
    36   35   36      ar
    37   35   43      ar
    38   36   37      ar
    39   37   38      ar
    40   38   39       1
    41   38   42      ar
    42   39   40      ar
    43   39   41      ar
    44   42   43      ar
    45   43   44       1
    46   44   45      ar
    47   44   46      ar
    48   42   77       1
    49    4   47       1
    50    4   48       1
    51    5   49       1
    52    5   50       1
    53    6   51       1
    54   37   76       1
    55   10   52       1
    56   13   53       1
    57   14   54       1
    58   36   75       1
    59   18   55       1
    60   18   56       1
    61   19   57       1
    62   19   58       1
    63   20   59       1
    64   20   60       1
    65   21   61       1
    66   21   62       1
    67   23   63       1
    68   27   64       1
    69   27   65       1
    70   29   66       1
    71   29   67       1
    72   30   68       1
    73   30   69       1
    74   32   70       1
    75   32   71       1
    76   33   72       1
    77   33   73       1
    78   34   74       1
@<TRIPOS>SUBSTRUCTURE
     1 ARK1770     1 GROUP             4 A     ARK     0 **** ARK A1770
