@<TRIPOS>MOLECULE
1e0s_GDP_1_ligand
   40    42     1     0     0
SMALL
NO_CHARGES


@<TRIPOS>ATOM
     1 PB           3.5230    16.6530    50.2990 P.3          1 GDP200   0.0000
     2 O1B          4.6430    17.0510    51.1820 O.co2        1 GDP200   0.0000
     3 O2B          2.5590    15.7810    51.0010 O.co2        1 GDP200  -1.0000
     4 O3B          2.8940    17.8070    49.6280 O.co2        1 GDP200  -1.0000
     5 O3A          4.1570    15.7600    49.1470 O.3          1 GDP200   0.0000
     6 PA           3.5700    14.4390    48.4360 P.3          1 GDP200   0.0000
     7 O1A          3.6810    13.2980    49.3480 O.co2        1 GDP200   0.0000
     8 O2A          2.2380    14.7770    47.8800 O.co2        1 GDP200  -1.0000
     9 O5'          4.5890    14.2430    47.2240 O.3          1 GDP200   0.0000
    10 C5'          4.6530    15.2320    46.2080 C.3          1 GDP200   0.0000
    11 C4'          5.0410    14.6430    44.8840 C.3          1 GDP200   0.0000
    12 O4'          6.4090    14.2000    44.9450 O.3          1 GDP200   0.0000
    13 C3'          4.2030    13.4250    44.5180 C.3          1 GDP200   0.0000
    14 O3'          4.0730    13.4720    43.0930 O.3          1 GDP200   0.0000
    15 C2'          5.1210    12.2880    45.0190 C.3          1 GDP200   0.0000
    16 O2'          4.9130    11.0510    44.3560 O.3          1 GDP200   0.0000
    17 C1'          6.4890    12.8110    44.6610 C.3          1 GDP200   0.0000
    18 N9           7.5230    12.1720    45.4740 N.pl3        1 GDP200   0.0000
    19 C8           7.5890    12.0320    46.8400 C.2          1 GDP200   0.0000
    20 N7           8.6090    11.3260    47.2460 N.2          1 GDP200   0.0000
    21 C5           9.3350    11.1200    46.0820 C.2          1 GDP200   0.0000
    22 C6          10.6000    10.4880    45.9150 C.2          1 GDP200   0.0000
    23 O6          11.3770    10.1490    46.7880 O.2          1 GDP200   0.0000
    24 N1          10.9360    10.3670    44.5840 N.pl3        1 GDP200   0.0000
    25 C2          10.2040    10.9190    43.5360 C.2          1 GDP200   0.0000
    26 N2          10.6450    10.6430    42.3120 N.pl3        1 GDP200   0.0000
    27 N3           9.0630    11.6130    43.6940 N.2          1 GDP200   0.0000
    28 C4           8.6750    11.6280    44.9890 C.2          1 GDP200   0.0000
    29 H5'1         5.3306    15.9200    46.4677 H            1 GDP200   0.0000
    30 H5'2         3.7557    15.6646    46.1198 H            1 GDP200   0.0000
    31 H4'          4.9477    15.3376    44.1707 H            1 GDP200   0.0000
    32 H3'          3.3154    13.4247    44.9786 H            1 GDP200   0.0000
    33 H5           3.5284    12.6931    42.7821 H            1 GDP200   0.0000
    34 H2'          5.0347    12.1759    46.0089 H            1 GDP200   0.0000
    35 H7           5.5372    10.3642    44.7283 H            1 GDP200   0.0000
    36 H1'          6.6727    12.6656    43.6888 H            1 GDP200   0.0000
    37 H9           6.9185    12.4334    47.4640 H            1 GDP200   0.0000
    38 H10         11.7600     9.8485    44.3557 H            1 GDP200   0.0000
    39 H11         10.1657    11.0078    41.5138 H            1 GDP200   0.0000
    40 H12         11.4559    10.0706    42.1899 H            1 GDP200   0.0000
@<TRIPOS>BOND
     1    1    2      ar
     2    1    3      ar
     3    1    4      ar
     4    1    5       1
     5    5    6       1
     6    6    7      ar
     7    6    8      ar
     8    6    9       1
     9    9   10       1
    10   10   11       1
    11   11   12       1
    12   11   13       1
    13   12   17       1
    14   13   14       1
    15   13   15       1
    16   15   16       1
    17   15   17       1
    18   17   18       1
    19   18   19       1
    20   18   28       1
    21   19   20       2
    22   20   21       1
    23   21   22       1
    24   21   28       2
    25   22   23       2
    26   22   24       1
    27   24   25       1
    28   25   26       1
    29   25   27       2
    30   27   28       1
    31   26   40       1
    32   26   39       1
    33   24   38       1
    34   10   29       1
    35   10   30       1
    36   11   31       1
    37   13   32       1
    38   14   33       1
    39   15   34       1
    40   16   35       1
    41   17   36       1
    42   19   37       1
@<TRIPOS>SUBSTRUCTURE
     1 GDP200      1 GROUP             4 A     GDP     0 **** GDP A 200
