@<TRIPOS>MOLECULE
5fbh_TCR_2_ligand
   28    30     1     0     0
SMALL
NO_CHARGES


@<TRIPOS>ATOM
     1 N          -35.0330   -22.6760    29.5690 N.4          1 TCR609   1.0000
     2 CA         -35.7720   -23.2310    28.4640 C.3          1 TCR609   0.0000
     3 CB         -35.6380   -22.3120    27.2750 C.3          1 TCR609   0.0000
     4 CG         -35.9270   -20.9220    27.7030 C.2          1 TCR609   0.0000
     5 CD2        -36.4760   -19.8100    26.9660 C.ar         1 TCR609   0.0000
     6 CE2        -36.5690   -18.6960    27.9260 C.ar         1 TCR609   0.0000
     7 CE3        -36.8220   -19.6890    25.6370 C.ar         1 TCR609   0.0000
     8 CD1        -35.7700   -20.4230    29.0570 C.2          1 TCR609   0.0000
     9 NE1        -36.1370   -19.1170    29.1190 N.pl3        1 TCR609   0.0000
    10 CZ2        -37.0410   -17.4790    27.4730 C.ar         1 TCR609   0.0000
    11 CZ3        -37.2940   -18.4310    25.2220 C.ar         1 TCR609   0.0000
    12 CH2        -37.3960   -17.3480    26.1200 C.ar         1 TCR609   0.0000
    13 C9         -35.2930   -21.3580    30.1480 C.3          1 TCR609   0.0000
    14 C          -35.0340   -24.4520    28.0680 C.2          1 TCR609   0.0000
    15 OXT        -34.1100   -24.8230    28.8880 O.co2        1 TCR609   0.0000
    16 O1         -35.3410   -24.9590    26.9400 O.co2        1 TCR609  -1.0000
    17 H1         -34.0775   -22.6589    29.2746 H            1 TCR609   0.0000
    18 HA         -36.7261   -23.4189    28.6972 H            1 TCR609   0.0000
    19 HB1        -36.2868   -22.5858    26.5650 H            1 TCR609   0.0000
    20 HB2        -34.7069   -22.3647    26.9139 H            1 TCR609   0.0000
    21 HE3        -36.7415   -20.4563    25.0008 H            1 TCR609   0.0000
    22 HE1        -36.0906   -18.5500    29.9414 H            1 TCR609   0.0000
    23 HZ2        -37.1286   -16.7036    28.0984 H            1 TCR609   0.0000
    24 HZ3        -37.5637   -18.3012    24.2678 H            1 TCR609   0.0000
    25 HH2        -37.7288   -16.4662    25.7857 H            1 TCR609   0.0000
    26 H10        -34.4524   -20.9985    30.5532 H            1 TCR609   0.0000
    27 H11        -35.9969   -21.4354    30.8541 H            1 TCR609   0.0000
    28 H12        -35.1387   -23.3276    30.3202 H            1 TCR609   0.0000
@<TRIPOS>BOND
     1    1    2       1
     2    1   13       1
     3    2    3       1
     4    2   14       1
     5    3    4       1
     6    4    5       1
     7    4    8       2
     8    5    6      ar
     9    5    7      ar
    10    6    9       1
    11    6   10      ar
    12    7   11      ar
    13    8    9       1
    14    8   13       1
    15   10   12      ar
    16   11   12      ar
    17   14   15      ar
    18   14   16      ar
    19    1   17       1
    20    2   18       1
    21    3   19       1
    22    3   20       1
    23    7   21       1
    24    9   22       1
    25   10   23       1
    26   11   24       1
    27   12   25       1
    28   13   26       1
    29   13   27       1
    30    1   28       1
@<TRIPOS>SUBSTRUCTURE
     1 TCR609      1 GROUP             4 B     TCR     0 **** TCR B 609
