@<TRIPOS>MOLECULE
4mv1_ADP_1_ligand
   39    41     1     0     0
SMALL
NO_CHARGES


@<TRIPOS>ATOM
     1 PB         -23.2550     7.2600   -15.2440 P.3          1 ADP502   0.0000
     2 O1B        -21.8750     6.9840   -15.7950 O.co2        1 ADP502   0.0000
     3 O2B        -23.6340     8.7220   -15.2540 O.co2        1 ADP502  -1.0000
     4 O3B        -23.5660     6.5730   -13.9300 O.co2        1 ADP502  -1.0000
     5 PA         -24.5470     4.9960   -16.4210 P.3          1 ADP502   0.0000
     6 O1A        -24.4460     4.5920   -17.8800 O.co2        1 ADP502   0.0000
     7 O2A        -23.7050     4.3250   -15.3630 O.co2        1 ADP502  -1.0000
     8 O3A        -24.2760     6.5920   -16.3110 O.3          1 ADP502   0.0000
     9 O5'        -26.1010     4.8900   -15.9670 O.3          1 ADP502   0.0000
    10 C5'        -26.5450     5.5200   -14.7620 C.3          1 ADP502   0.0000
    11 C4'        -28.0620     5.6250   -14.7710 C.3          1 ADP502   0.0000
    12 O4'        -28.6430     4.3340   -14.5300 O.3          1 ADP502   0.0000
    13 C3'        -28.6180     6.5520   -13.6900 C.3          1 ADP502   0.0000
    14 O3'        -28.7350     7.9160   -14.0820 O.3          1 ADP502   0.0000
    15 C2'        -29.9900     5.9780   -13.4260 C.3          1 ADP502   0.0000
    16 O2'        -30.9850     6.5280   -14.2900 O.3          1 ADP502   0.0000
    17 C1'        -29.8260     4.5030   -13.7240 C.3          1 ADP502   0.0000
    18 N9         -29.7190     3.8880   -12.3820 N.pl3        1 ADP502   0.0000
    19 C8         -28.5920     3.4540   -11.7920 C.2          1 ADP502   0.0000
    20 N7         -28.8660     2.9660   -10.5570 N.2          1 ADP502   0.0000
    21 C5         -30.1850     3.1010   -10.3490 C.ar         1 ADP502   0.0000
    22 C6         -31.1300     2.7880    -9.2580 C.ar         1 ADP502   0.0000
    23 N6         -30.6860     2.2160    -8.1160 N.pl3        1 ADP502   0.0000
    24 N1         -32.4360     3.0860    -9.4400 N.ar         1 ADP502   0.0000
    25 C2         -32.8860     3.6560   -10.5730 C.ar         1 ADP502   0.0000
    26 N3         -32.0750     3.9690   -11.5990 N.ar         1 ADP502   0.0000
    27 C4         -30.7450     3.7160   -11.5510 C.ar         1 ADP502   0.0000
    28 H5'1       -26.1483     6.4358   -14.6995 H            1 ADP502   0.0000
    29 H5'2       -26.2536     4.9761   -13.9751 H            1 ADP502   0.0000
    30 H4'        -28.3602     5.9541   -15.6670 H            1 ADP502   0.0000
    31 H3'        -28.0578     6.4838   -12.8645 H            1 ADP502   0.0000
    32 H5         -29.6377     8.0712   -14.4833 H            1 ADP502   0.0000
    33 H2'        -30.2461     6.1137   -12.4689 H            1 ADP502   0.0000
    34 H7         -31.8679     6.5336   -13.8205 H            1 ADP502   0.0000
    35 H1'        -30.6294     4.1527   -14.2055 H            1 ADP502   0.0000
    36 H9         -27.6817     3.4864   -12.2048 H            1 ADP502   0.0000
    37 H10        -31.3288     2.0055    -7.3795 H            1 ADP502   0.0000
    38 H11        -29.7148     2.0035    -8.0080 H            1 ADP502   0.0000
    39 H12        -33.8626     3.8548   -10.6552 H            1 ADP502   0.0000
@<TRIPOS>BOND
     1    1    2      ar
     2    1    3      ar
     3    1    4      ar
     4    1    8       1
     5    5    6      ar
     6    5    7      ar
     7    5    8       1
     8    5    9       1
     9    9   10       1
    10   10   11       1
    11   11   12       1
    12   11   13       1
    13   12   17       1
    14   13   14       1
    15   13   15       1
    16   15   16       1
    17   15   17       1
    18   17   18       1
    19   18   19       1
    20   18   27       1
    21   19   20       2
    22   20   21       1
    23   21   22      ar
    24   21   27      ar
    25   22   23       1
    26   22   24      ar
    27   24   25      ar
    28   25   26      ar
    29   26   27      ar
    30   25   39       1
    31   23   38       1
    32   23   37       1
    33   10   28       1
    34   10   29       1
    35   11   30       1
    36   13   31       1
    37   14   32       1
    38   15   33       1
    39   16   34       1
    40   17   35       1
    41   19   36       1
@<TRIPOS>SUBSTRUCTURE
     1 ADP502      1 GROUP             4 A     ADP     0 **** ADP A 502
