@<TRIPOS>MOLECULE
4npt_017_1_ligand
   75    78     1     0     0
SMALL
NO_CHARGES


@<TRIPOS>ATOM
     1 N1           4.4350   -10.7180    23.6020 N.pl3        1 017401   0.0000
     2 C2           5.4290    -9.9030    23.0970 C.ar         1 017401   0.0000
     3 C3           6.2380    -9.1050    23.9470 C.ar         1 017401   0.0000
     4 C4           7.2090    -8.3040    23.3630 C.ar         1 017401   0.0000
     5 C5           7.4040    -8.2850    21.9800 C.ar         1 017401   0.0000
     6 C6           6.6240    -9.0820    21.1500 C.ar         1 017401   0.0000
     7 C7           5.6370    -9.8840    21.7120 C.ar         1 017401   0.0000
     8 S8           8.5970    -7.3300    21.3550 S.o2         1 017401   0.0000
     9 O9           8.1990    -6.8730    20.0280 O.2          1 017401   0.0000
    10 O10          8.8140    -6.3090    22.2750 O.2          1 017401   0.0000
    11 N11          9.8120    -8.4550    21.2930 N.3          1 017401   0.0000
    12 C12         10.0400    -9.3800    20.1500 C.3          1 017401   0.0000
    13 C13         10.8960    -8.9980    18.9370 C.3          1 017401   0.0000
    14 C14         12.1500    -8.2090    19.2810 C.3          1 017401   0.0000
    15 C15         11.2470   -10.2680    18.1260 C.3          1 017401   0.0000
    16 C16         10.5670    -8.9230    22.5310 C.3          1 017401   0.0000
    17 C17         12.0480    -8.5130    22.6660 C.3          1 017401   0.0000
    18 O18         11.9760    -7.0690    22.6290 O.3          1 017401   0.0000
    19 C19         12.6800    -9.0090    24.0010 C.3          1 017401   0.0000
    20 N20         14.0030    -8.3720    24.0670 N.am         1 017401   0.0000
    21 C21         15.0740    -8.9790    23.6180 C.2          1 017401   0.0000
    22 O22         16.2080    -8.5250    23.5810 O.2          1 017401   0.0000
    23 O23         14.9410   -10.3010    23.1760 O.3          1 017401   0.0000
    24 C24         16.1380   -10.9580    22.7170 C.3          1 017401   0.0000
    25 C25         15.8600   -12.4520    22.8180 C.3          1 017401   0.0000
    26 O26         16.6460   -13.0920    21.8030 O.3          1 017401   0.0000
    27 C27         16.6770   -12.1930    20.6480 C.3          1 017401   0.0000
    28 O28         15.5960   -12.4700    19.7320 O.3          1 017401   0.0000
    29 C29         14.6640   -11.4300    19.9180 C.3          1 017401   0.0000
    30 C30         15.3890   -10.1580    20.3950 C.3          1 017401   0.0000
    31 C31         16.4980   -10.7790    21.2380 C.3          1 017401   0.0000
    32 C32         11.8590    -8.5480    25.2400 C.3          1 017401   0.0000
    33 C33         12.3670    -8.3630    27.7210 C.ar         1 017401   0.0000
    34 C34         12.7960    -8.9320    28.9020 C.ar         1 017401   0.0000
    35 C35         13.1580   -10.2610    28.9540 C.ar         1 017401   0.0000
    36 C36         13.1030   -11.0580    27.8330 C.ar         1 017401   0.0000
    37 C37         12.6810   -10.4790    26.6280 C.ar         1 017401   0.0000
    38 C38         12.3310    -9.1320    26.5640 C.ar         1 017401   0.0000
    39 H1           3.8784   -11.2708    22.9818 H            1 017401   0.0000
    40 H2           4.2718   -10.7554    24.5879 H            1 017401   0.0000
    41 H3           6.1119    -9.1195    24.9389 H            1 017401   0.0000
    42 H4           7.7820    -7.7274    23.9454 H            1 017401   0.0000
    43 H5           6.7710    -9.0786    20.1609 H            1 017401   0.0000
    44 H6           5.0682   -10.4547    21.1197 H            1 017401   0.0000
    45 H7           9.1344    -9.6052    19.7905 H            1 017401   0.0000
    46 H8          10.4586   -10.2015    20.5372 H            1 017401   0.0000
    47 H9          10.3332    -8.4174    18.3487 H            1 017401   0.0000
    48 H10         12.6521    -7.9987    18.4421 H            1 017401   0.0000
    49 H11         11.8931    -7.3575    19.7381 H            1 017401   0.0000
    50 H12         12.7292    -8.7521    19.8889 H            1 017401   0.0000
    51 H13         11.8052   -10.0152    17.3358 H            1 017401   0.0000
    52 H14         11.7578   -10.9030    18.7055 H            1 017401   0.0000
    53 H15         10.4048   -10.7067    17.8125 H            1 017401   0.0000
    54 H16         10.5316    -9.9223    22.5423 H            1 017401   0.0000
    55 H17         10.0837    -8.5633    23.3292 H            1 017401   0.0000
    56 H18         12.5739    -8.8535    21.8865 H            1 017401   0.0000
    57 H19         11.0222    -6.7852    22.5307 H            1 017401   0.0000
    58 H20         12.7722   -10.0047    23.9945 H            1 017401   0.0000
    59 H21         14.0874    -7.4574    24.4623 H            1 017401   0.0000
    60 H22         16.9145   -10.7093    23.2960 H            1 017401   0.0000
    61 H23         14.8883   -12.6320    22.6650 H            1 017401   0.0000
    62 H24         16.1235   -12.7905    23.7213 H            1 017401   0.0000
    63 H25         17.5566   -12.2634    20.1775 H            1 017401   0.0000
    64 H26         13.9915   -11.7059    20.6047 H            1 017401   0.0000
    65 H27         14.1991   -11.2423    19.0527 H            1 017401   0.0000
    66 H28         14.7902    -9.5739    20.9430 H            1 017401   0.0000
    67 H29         15.7571    -9.6320    19.6283 H            1 017401   0.0000
    68 H30         17.3432   -10.2526    21.1456 H            1 017401   0.0000
    69 H31         10.9063    -8.8185    25.1014 H            1 017401   0.0000
    70 H32         11.9172    -7.5515    25.2999 H            1 017401   0.0000
    71 H33         12.0840    -7.4042    27.6975 H            1 017401   0.0000
    72 H34         12.8450    -8.3738    29.7302 H            1 017401   0.0000
    73 H35         13.4659   -10.6529    29.8210 H            1 017401   0.0000
    74 H36         13.3573   -12.0241    27.8770 H            1 017401   0.0000
    75 H37         12.6305   -11.0410    25.8024 H            1 017401   0.0000
@<TRIPOS>BOND
     1    1    2       1
     2    2    3      ar
     3    2    7      ar
     4    3    4      ar
     5    4    5      ar
     6    5    6      ar
     7    5    8       1
     8    6    7      ar
     9    8    9       2
    10    8   10       2
    11    8   11       1
    12   11   12       1
    13   11   16       1
    14   12   13       1
    15   13   14       1
    16   13   15       1
    17   16   17       1
    18   17   18       1
    19   17   19       1
    20   19   20       1
    21   19   32       1
    22   20   21      am
    23   21   22       2
    24   21   23       1
    25   23   24       1
    26   24   25       1
    27   24   31       1
    28   25   26       1
    29   26   27       1
    30   27   28       1
    31   27   31       1
    32   28   29       1
    33   29   30       1
    34   30   31       1
    35   32   38       1
    36   33   34      ar
    37   33   38      ar
    38   34   35      ar
    39   35   36      ar
    40   36   37      ar
    41   37   38      ar
    42    1   39       1
    43    1   40       1
    44    3   41       1
    45    4   42       1
    46    6   43       1
    47    7   44       1
    48   12   45       1
    49   12   46       1
    50   13   47       1
    51   14   48       1
    52   14   49       1
    53   14   50       1
    54   15   51       1
    55   15   52       1
    56   15   53       1
    57   16   54       1
    58   16   55       1
    59   17   56       1
    60   18   57       1
    61   19   58       1
    62   20   59       1
    63   24   60       1
    64   25   61       1
    65   25   62       1
    66   27   63       1
    67   29   64       1
    68   29   65       1
    69   30   66       1
    70   30   67       1
    71   31   68       1
    72   32   69       1
    73   32   70       1
    74   33   71       1
    75   34   72       1
    76   35   73       1
    77   36   74       1
    78   37   75       1
@<TRIPOS>SUBSTRUCTURE
     1 017401      1 GROUP             4 A     017     0 **** 017 A 401
