@<TRIPOS>MOLECULE
3zln_H0Y_1_ligand
   47    51     1     0     0
SMALL
NO_CHARGES


@<TRIPOS>ATOM
     1 O82        -22.8520   -17.8700    10.7470 O.co2        1 H0Y1197   0.0000
     2 C28        -22.9250   -17.5760    11.9690 C.2          1 H0Y1197   0.0000
     3 O81        -23.5920   -18.2650    12.7710 O.co2        1 H0Y1197  -1.0000
     4 C24        -22.2330   -16.3340    12.4690 C.ar         1 H0Y1197   0.0000
     5 N23        -21.3010   -15.7440    11.7060 N.ar         1 H0Y1197   0.0000
     6 C25        -22.5720   -15.7870    13.7020 C.ar         1 H0Y1197   0.0000
     7 C26        -21.9360   -14.6250    14.1170 C.ar         1 H0Y1197   0.0000
     8 C27        -20.9790   -14.0350    13.3050 C.ar         1 H0Y1197   0.0000
     9 C22        -20.6880   -14.6160    12.0780 C.ar         1 H0Y1197   0.0000
    10 C19        -19.7270   -14.0760    11.2350 C.ar         1 H0Y1197   0.0000
    11 C20        -19.7100   -14.4340     9.8940 C.ar         1 H0Y1197   0.0000
    12 C21        -18.7240   -13.9080     9.0510 C.ar         1 H0Y1197   0.0000
    13 C16        -17.7600   -13.0300     9.5480 C.ar         1 H0Y1197   0.0000
    14 C15        -16.6920   -12.4660     8.6270 C.3          1 H0Y1197   0.0000
    15 C14        -15.4140   -12.2290     9.4150 C.3          1 H0Y1197   0.0000
    16 C13        -15.6780   -11.1900    10.4980 C.3          1 H0Y1197   0.0000
    17 C18        -18.7560   -13.2060    11.7310 C.ar         1 H0Y1197   0.0000
    18 C17        -17.7780   -12.6820    10.8910 C.ar         1 H0Y1197   0.0000
    19 C12        -16.7280   -11.7470    11.4270 C.2          1 H0Y1197   0.0000
    20 N11        -16.7190   -11.3670    12.6320 N.2          1 H0Y1197   0.0000
    21 N10        -15.8020   -10.5270    13.0920 N.pl3        1 H0Y1197   0.0000
    22 C8         -16.1430    -9.6960    14.1150 C.2          1 H0Y1197   0.0000
    23 S9         -17.7920    -9.5270    14.6760 S.3          1 H0Y1197   0.0000
    24 C4         -17.1130    -8.4180    15.7620 C.ar         1 H0Y1197   0.0000
    25 C3         -17.9020    -7.7620    16.6920 C.ar         1 H0Y1197   0.0000
    26 C2         -17.3240    -6.8540    17.5720 C.ar         1 H0Y1197   0.0000
    27 N7         -15.2020    -8.9320    14.7090 N.2          1 H0Y1197   0.0000
    28 C5         -15.7460    -8.1770    15.7040 C.ar         1 H0Y1197   0.0000
    29 C6         -15.1670    -7.2720    16.5940 C.ar         1 H0Y1197   0.0000
    30 C1         -15.9540    -6.6080    17.5240 C.ar         1 H0Y1197   0.0000
    31 H1         -23.2620   -16.2233    14.2796 H            1 H0Y1197   0.0000
    32 H2         -22.1673   -14.2145    14.9990 H            1 H0Y1197   0.0000
    33 H3         -20.5060   -13.2043    13.5986 H            1 H0Y1197   0.0000
    34 H4         -20.3977   -15.0636     9.5325 H            1 H0Y1197   0.0000
    35 H5         -18.7103   -14.1636     8.0843 H            1 H0Y1197   0.0000
    36 H6         -17.0096   -11.6006     8.2395 H            1 H0Y1197   0.0000
    37 H7         -16.5122   -13.1158     7.8885 H            1 H0Y1197   0.0000
    38 H8         -14.6988   -11.8968     8.8001 H            1 H0Y1197   0.0000
    39 H9         -15.1184   -13.0855     9.8382 H            1 H0Y1197   0.0000
    40 H10        -16.0070   -10.3419    10.0826 H            1 H0Y1197   0.0000
    41 H11        -14.8365   -11.0075    11.0065 H            1 H0Y1197   0.0000
    42 H12        -18.7627   -12.9565    12.6993 H            1 H0Y1197   0.0000
    43 H13        -18.8851    -7.9410    16.7305 H            1 H0Y1197   0.0000
    44 H14        -17.8934    -6.3763    18.2411 H            1 H0Y1197   0.0000
    45 H15        -14.1822    -7.1014    16.5616 H            1 H0Y1197   0.0000
    46 H16        -15.5390    -5.9551    18.1576 H            1 H0Y1197   0.0000
    47 H17        -14.8834   -10.5045    12.6975 H            1 H0Y1197   0.0000
@<TRIPOS>BOND
     1    1    2      ar
     2    2    3      ar
     3    2    4       1
     4    4    5      ar
     5    4    6      ar
     6    5    9      ar
     7    6    7      ar
     8    7    8      ar
     9    8    9      ar
    10    9   10       1
    11   10   11      ar
    12   10   17      ar
    13   11   12      ar
    14   12   13      ar
    15   13   14       1
    16   13   18      ar
    17   14   15       1
    18   15   16       1
    19   16   19       1
    20   17   18      ar
    21   18   19       1
    22   19   20       2
    23   20   21       1
    24   21   22       1
    25   22   23       1
    26   22   27       2
    27   23   24       1
    28   24   25      ar
    29   24   28      ar
    30   25   26      ar
    31   26   30      ar
    32   27   28       1
    33   28   29      ar
    34   29   30      ar
    35   30   46       1
    36    6   31       1
    37    7   32       1
    38    8   33       1
    39   11   34       1
    40   12   35       1
    41   14   36       1
    42   14   37       1
    43   15   38       1
    44   15   39       1
    45   16   40       1
    46   16   41       1
    47   17   42       1
    48   25   43       1
    49   26   44       1
    50   21   47       1
    51   29   45       1
@<TRIPOS>SUBSTRUCTURE
     1 H0Y1197     1 GROUP             4 A     H0Y     0 **** H0Y A1197
