@<TRIPOS>MOLECULE
2p3b_3TL_1_ligand
  130   133     1     0     0
SMALL
NO_CHARGES


@<TRIPOS>ATOM
     1 C31         16.6670     4.6770     8.9030 C.2          1 3TL101   0.0000
     2 O8          15.6560     4.1020     8.5660 O.2          1 3TL101   0.0000
     3 O9          16.7360     5.1730    10.2590 O.3          1 3TL101   0.0000
     4 CA          15.5850     5.2870    11.1190 C.3          1 3TL101   0.0000
     5 C           14.5930     6.3850    10.7430 C.ar         1 3TL101   0.0000
     6 C13         13.3660     6.4650    11.4220 C.ar         1 3TL101   0.0000
     7 C14         12.4290     7.4580    11.1280 C.ar         1 3TL101   0.0000
     8 C15         12.7040     8.3800    10.1230 C.ar         1 3TL101   0.0000
     9 C16         13.9180     8.3160     9.4420 C.ar         1 3TL101   0.0000
    10 C17         14.8540     7.3220     9.7540 C.ar         1 3TL101   0.0000
    11 N4          17.7130     4.8450     8.0860 N.am         1 3TL101   0.0000
    12 C18         17.5940     4.4730     6.6870 C.3          1 3TL101   0.0000
    13 C19         18.4000     3.2580     6.2910 C.2          1 3TL101   0.0000
    14 O4          19.5710     3.1260     6.6190 O.2          1 3TL101   0.0000
    15 C20         17.9610     5.6430     5.7940 C.3          1 3TL101   0.0000
    16 N2          17.7470     2.3440     5.5670 N.am         1 3TL101   0.0000
    17 C10         18.4270     1.2580     4.8880 C.3          1 3TL101   0.0000
    18 C11         18.1060     1.2250     3.4140 C.2          1 3TL101   0.0000
    19 O2          16.9750     0.9450     3.0290 O.2          1 3TL101   0.0000
    20 C12         18.0900    -0.0610     5.6110 C.3          1 3TL101   0.0000
    21 CG2         18.6220    -0.0890     7.0330 C.3          1 3TL101   0.0000
    22 CG1         18.6450    -1.2820     4.8830 C.3          1 3TL101   0.0000
    23 C2          19.9170     0.3010     0.5580 C.3          1 3TL101   0.0000
    24 O1          21.2460     0.5860     0.9080 O.3          1 3TL101   0.0000
    25 C1          19.0010     1.4000     1.1110 C.3          1 3TL101   0.0000
    26 N1          19.1050     1.5230     2.5720 N.am         1 3TL101   0.0000
    27 C3          19.3040     2.7190     0.3850 C.3          1 3TL101   0.0000
    28 C4          18.5000     3.8510     0.9740 C.ar         1 3TL101   0.0000
    29 C5          19.0740     4.7180     1.9090 C.ar         1 3TL101   0.0000
    30 C9          17.1690     4.0210     0.5890 C.ar         1 3TL101   0.0000
    31 C6          18.3270     5.7700     2.4510 C.ar         1 3TL101   0.0000
    32 C8          16.4220     5.0550     1.1450 C.ar         1 3TL101   0.0000
    33 C7          16.9930     5.9360     2.0700 C.ar         1 3TL101   0.0000
    34 N51         18.4460    -1.7280    -0.9840 N.am         1 3TL101   0.0000
    35 C51         18.4020    -1.7950     0.4780 C.3          1 3TL101   0.0000
    36 C52         19.6260    -1.1120     1.0700 C.3          1 3TL101   0.0000
    37 O51         20.7310    -1.9100     0.7100 O.3          1 3TL101   0.0000
    38 C53         18.4400    -3.2430     0.9910 C.3          1 3TL101   0.0000
    39 C54         17.3180    -4.1040     0.4640 C.ar         1 3TL101   0.0000
    40 C55         17.3790    -4.6740    -0.8090 C.ar         1 3TL101   0.0000
    41 C59         16.2260    -4.3470     1.2860 C.ar         1 3TL101   0.0000
    42 C56         16.3440    -5.4800    -1.2880 C.ar         1 3TL101   0.0000
    43 C58         15.1880    -5.1450     0.8200 C.ar         1 3TL101   0.0000
    44 C57         15.2480    -5.7110    -0.4600 C.ar         1 3TL101   0.0000
    45 N52         17.1230    -2.3130    -3.9050 N.am         1 3TL101   0.0000
    46 C60         17.8180    -1.2070    -3.2570 C.3          1 3TL101   0.0000
    47 C61         17.5180    -1.1860    -1.7760 C.2          1 3TL101   0.0000
    48 O52         16.4810    -0.7110    -1.3510 O.2          1 3TL101   0.0000
    49 C62         17.4310     0.1090    -3.9360 C.3          1 3TL101   0.0000
    50 CG6         17.6890     0.0490    -5.4340 C.3          1 3TL101   0.0000
    51 CG5         18.1630     1.3140    -3.3410 C.3          1 3TL101   0.0000
    52 N54         16.7390    -4.1720    -6.7660 N.am         1 3TL101   0.0000
    53 C68         16.7230    -4.2260    -5.3210 C.3          1 3TL101   0.0000
    54 C69         17.6760    -3.1990    -4.7340 C.2          1 3TL101   0.0000
    55 O54         18.8650    -3.1800    -5.0270 O.2          1 3TL101   0.0000
    56 C70         17.1010    -5.6250    -4.8540 C.3          1 3TL101   0.0000
    57 C81         15.7220    -4.4510    -7.5800 C.2          1 3TL101   0.0000
    58 O58         14.5470    -4.2180    -7.3560 O.2          1 3TL101   0.0000
    59 O59         16.0620    -5.0780    -8.8290 O.3          1 3TL101   0.0000
    60 CA5         15.0850    -5.4240    -9.8190 C.3          1 3TL101   0.0000
    61 C50         14.1950    -6.5710    -9.3900 C.ar         1 3TL101   0.0000
    62 C63         13.0460    -6.8660   -10.1410 C.ar         1 3TL101   0.0000
    63 C64         12.1950    -7.9080    -9.7670 C.ar         1 3TL101   0.0000
    64 C65         12.5080    -8.6630    -8.6390 C.ar         1 3TL101   0.0000
    65 C66         13.6480    -8.3780    -7.8840 C.ar         1 3TL101   0.0000
    66 C67         14.4930    -7.3300    -8.2620 C.ar         1 3TL101   0.0000
    67 HA1         15.9100     5.4694    12.0469 H            1 3TL101   0.0000
    68 HA2         15.0992     4.4131    11.1017 H            1 3TL101   0.0000
    69 H3          13.1582     5.7941    12.1338 H            1 3TL101   0.0000
    70 H4          11.5684     7.5059    11.6351 H            1 3TL101   0.0000
    71 H5          12.0339     9.0850     9.8906 H            1 3TL101   0.0000
    72 H6          14.1221     8.9838     8.7262 H            1 3TL101   0.0000
    73 H7          15.7214     7.2873     9.2576 H            1 3TL101   0.0000
    74 H8          18.5699     5.2237     8.4357 H            1 3TL101   0.0000
    75 H9          16.6319     4.2597     6.5170 H            1 3TL101   0.0000
    76 H10         17.8741     5.3710     4.8356 H            1 3TL101   0.0000
    77 H11         17.3466     6.4098     5.9799 H            1 3TL101   0.0000
    78 H12         18.9043     5.9195     5.9778 H            1 3TL101   0.0000
    79 H13         16.7522     2.4115     5.4906 H            1 3TL101   0.0000
    80 H14         19.4108     1.4115     4.9805 H            1 3TL101   0.0000
    81 H15         17.0946    -0.1484     5.6499 H            1 3TL101   0.0000
    82 HG21        18.3811    -0.9596     7.4620 H            1 3TL101   0.0000
    83 HG22        19.6168     0.0115     7.0188 H            1 3TL101   0.0000
    84 HG23        18.2184     0.6626     7.5547 H            1 3TL101   0.0000
    85 HG11        18.4018    -2.1102     5.3879 H            1 3TL101   0.0000
    86 HG12        18.2564    -1.3265     3.9627 H            1 3TL101   0.0000
    87 HG13        19.6405    -1.2094     4.8214 H            1 3TL101   0.0000
    88 H22         19.8445     0.2989    -0.4394 H            1 3TL101   0.0000
    89 H23         21.7950     0.6865     0.0782 H            1 3TL101   0.0000
    90 H24         18.0584     1.1453     0.8951 H            1 3TL101   0.0000
    91 H25         19.9685     1.8468     2.9588 H            1 3TL101   0.0000
    92 H26         19.0725     2.6213    -0.5829 H            1 3TL101   0.0000
    93 H27         20.2780     2.9268     0.4754 H            1 3TL101   0.0000
    94 H28         20.0239     4.5855     2.1920 H            1 3TL101   0.0000
    95 H29         16.7556     3.4045    -0.0811 H            1 3TL101   0.0000
    96 H30         18.7452     6.3987     3.1066 H            1 3TL101   0.0000
    97 H31         15.4646     5.1699     0.8800 H            1 3TL101   0.0000
    98 H32         16.4490     6.6808     2.4565 H            1 3TL101   0.0000
    99 H33         19.2469    -2.1258    -1.4315 H            1 3TL101   0.0000
   100 H34         17.5734    -1.3438     0.8093 H            1 3TL101   0.0000
   101 H35         19.5436    -1.0919     2.0664 H            1 3TL101   0.0000
   102 H36         21.4107    -1.8884     1.4431 H            1 3TL101   0.0000
   103 H37         18.3824    -3.2257     1.9892 H            1 3TL101   0.0000
   104 H38         19.3091    -3.6531     0.7143 H            1 3TL101   0.0000
   105 H39         18.1767    -4.5024    -1.3871 H            1 3TL101   0.0000
   106 H40         16.1867    -3.9520     2.2038 H            1 3TL101   0.0000
   107 H41         16.3886    -5.8814    -2.2028 H            1 3TL101   0.0000
   108 H42         14.3932    -5.3163     1.4022 H            1 3TL101   0.0000
   109 H43         14.4965    -6.2866    -0.7825 H            1 3TL101   0.0000
   110 H44         16.1474    -2.4159    -3.7109 H            1 3TL101   0.0000
   111 H45         18.8016    -1.3430    -3.3753 H            1 3TL101   0.0000
   112 H46         16.4502     0.2478    -3.7991 H            1 3TL101   0.0000
   113 HG61        17.4283     0.9191    -5.8523 H            1 3TL101   0.0000
   114 HG62        18.6605    -0.1220    -5.5983 H            1 3TL101   0.0000
   115 HG63        17.1478    -0.6895    -5.8361 H            1 3TL101   0.0000
   116 HG51        17.8770     2.1459    -3.8166 H            1 3TL101   0.0000
   117 HG52        17.9408     1.3925    -2.3692 H            1 3TL101   0.0000
   118 HG53        19.1496     1.1911    -3.4485 H            1 3TL101   0.0000
   119 H53         17.5988    -3.8980    -7.1970 H            1 3TL101   0.0000
   120 H54         15.7971    -4.0218    -5.0033 H            1 3TL101   0.0000
   121 H55         17.0886    -5.6575    -3.8546 H            1 3TL101   0.0000
   122 H56         16.4447    -6.2863    -5.2172 H            1 3TL101   0.0000
   123 H57         18.0180    -5.8500    -5.1835 H            1 3TL101   0.0000
   124 HA51        15.5603    -5.6854   -10.6591 H            1 3TL101   0.0000
   125 HA52        14.5119    -4.6238    -9.9955 H            1 3TL101   0.0000
   126 H60         12.8345    -6.3232   -10.9538 H            1 3TL101   0.0000
   127 H61         11.3736    -8.1091   -10.3007 H            1 3TL101   0.0000
   128 H62         11.9102    -9.4170    -8.3669 H            1 3TL101   0.0000
   129 H63         13.8599    -8.9235    -7.0731 H            1 3TL101   0.0000
   130 H64         15.3101    -7.1262    -7.7228 H            1 3TL101   0.0000
@<TRIPOS>BOND
     1    1    2       2
     2    1    3       1
     3    1   11      am
     4    3    4       1
     5    4    5       1
     6    5    6      ar
     7    5   10      ar
     8    6    7      ar
     9    7    8      ar
    10    8    9      ar
    11    9   10      ar
    12   11   12       1
    13   12   13       1
    14   12   15       1
    15   13   14       2
    16   13   16      am
    17   16   17       1
    18   17   18       1
    19   17   20       1
    20   18   19       2
    21   18   26      am
    22   20   21       1
    23   20   22       1
    24   23   24       1
    25   23   25       1
    26   23   36       1
    27   25   26       1
    28   25   27       1
    29   27   28       1
    30   28   29      ar
    31   28   30      ar
    32   29   31      ar
    33   30   32      ar
    34   31   33      ar
    35   32   33      ar
    36   34   35       1
    37   34   47      am
    38   35   36       1
    39   35   38       1
    40   36   37       1
    41   38   39       1
    42   39   40      ar
    43   39   41      ar
    44   40   42      ar
    45   41   43      ar
    46   42   44      ar
    47   43   44      ar
    48   45   46       1
    49   45   54      am
    50   46   47       1
    51   46   49       1
    52   47   48       2
    53   49   50       1
    54   49   51       1
    55   52   53       1
    56   52   57      am
    57   53   54       1
    58   53   56       1
    59   54   55       2
    60   57   58       2
    61   57   59       1
    62   59   60       1
    63   60   61       1
    64   61   62      ar
    65   61   66      ar
    66   62   63      ar
    67   63   64      ar
    68   64   65      ar
    69   65   66      ar
    70    4   67       1
    71    4   68       1
    72    6   69       1
    73    7   70       1
    74    8   71       1
    75    9   72       1
    76   10   73       1
    77   11   74       1
    78   12   75       1
    79   15   76       1
    80   15   77       1
    81   15   78       1
    82   16   79       1
    83   17   80       1
    84   20   81       1
    85   21   82       1
    86   21   83       1
    87   21   84       1
    88   22   85       1
    89   22   86       1
    90   22   87       1
    91   23   88       1
    92   24   89       1
    93   25   90       1
    94   26   91       1
    95   27   92       1
    96   27   93       1
    97   29   94       1
    98   30   95       1
    99   31   96       1
   100   32   97       1
   101   33   98       1
   102   34   99       1
   103   35  100       1
   104   36  101       1
   105   37  102       1
   106   38  103       1
   107   38  104       1
   108   40  105       1
   109   41  106       1
   110   42  107       1
   111   43  108       1
   112   44  109       1
   113   45  110       1
   114   46  111       1
   115   49  112       1
   116   50  113       1
   117   50  114       1
   118   50  115       1
   119   51  116       1
   120   51  117       1
   121   51  118       1
   122   52  119       1
   123   53  120       1
   124   56  121       1
   125   56  122       1
   126   56  123       1
   127   60  124       1
   128   60  125       1
   129   62  126       1
   130   63  127       1
   131   64  128       1
   132   65  129       1
   133   66  130       1
@<TRIPOS>SUBSTRUCTURE
     1 3TL101      1 GROUP             4 A     3TL     0 **** 3TL A 101
