@<TRIPOS>MOLECULE
4hz5_19Y_3_ligand
   36    38     1     0     0
SMALL
NO_CHARGES


@<TRIPOS>ATOM
     1 O20          6.8870    42.0150    -8.7430 O.2          1 19Y301   0.0000
     2 C19          7.6280    41.8610    -7.7880 C.2          1 19Y301   0.0000
     3 C5           9.0190    41.3730    -7.9740 C.2          1 19Y301   0.0000
     4 C1          10.0380    41.7030    -8.9980 C.2          1 19Y301   0.0000
     5 C21          9.8780    42.6690   -10.1480 C.3          1 19Y301   0.0000
     6 C22         11.0120    42.5330   -11.1450 C.3          1 19Y301   0.0000
     7 C4           9.6000    40.3920    -7.0490 C.ar         1 19Y301   0.0000
     8 C6           9.1960    39.6420    -5.8380 C.ar         1 19Y301   0.0000
     9 O17          7.9460    39.7790    -5.2800 O.3          1 19Y301   0.0000
    10 C18          7.7370    39.5960    -3.8770 C.3          1 19Y301   0.0000
    11 N7          10.1160    38.8070    -5.3050 N.ar         1 19Y301   0.0000
    12 C8          11.3600    38.6550    -5.8320 C.ar         1 19Y301   0.0000
    13 N9          11.7740    39.3220    -6.9400 N.ar         1 19Y301   0.0000
    14 C3          10.9620    40.1950    -7.5900 C.ar         1 19Y301   0.0000
    15 N2          11.1340    40.9710    -8.6900 N.pl3        1 19Y301   0.0000
    16 S10         12.4300    37.5800    -5.0750 S.3          1 19Y301   0.0000
    17 C11         11.8500    37.1680    -3.5350 C.ar         1 19Y301   0.0000
    18 C16         11.3850    38.1500    -2.6560 C.ar         1 19Y301   0.0000
    19 C15         10.9120    37.7770    -1.3990 C.ar         1 19Y301   0.0000
    20 C14         10.9210    36.4250    -1.0580 C.ar         1 19Y301   0.0000
    21 N13         11.3800    35.4970    -1.9210 N.ar         1 19Y301   0.0000
    22 C12         11.8380    35.8330    -3.1390 C.ar         1 19Y301   0.0000
    23 H1           7.2957    42.0657    -6.8673 H            1 19Y301   0.0000
    24 H2           9.8694    43.6027    -9.7901 H            1 19Y301   0.0000
    25 H3           9.0122    42.4820   -10.6122 H            1 19Y301   0.0000
    26 H4          10.8784    43.1836   -11.8926 H            1 19Y301   0.0000
    27 H5          11.8814    42.7232   -10.6890 H            1 19Y301   0.0000
    28 H6          11.0242    41.6025   -11.5111 H            1 19Y301   0.0000
    29 H7           6.7703    39.7361    -3.6629 H            1 19Y301   0.0000
    30 H8           8.0045    38.6678    -3.6184 H            1 19Y301   0.0000
    31 H9           8.2901    40.2561    -3.3687 H            1 19Y301   0.0000
    32 H10         11.9826    40.9991    -9.2183 H            1 19Y301   0.0000
    33 H11         11.3916    39.1126    -2.9267 H            1 19Y301   0.0000
    34 H12         10.5736    38.4639    -0.7559 H            1 19Y301   0.0000
    35 H13         10.5824    36.1401    -0.1612 H            1 19Y301   0.0000
    36 H14         12.1703    35.1241    -3.7611 H            1 19Y301   0.0000
@<TRIPOS>BOND
     1    1    2       2
     2    2    3       1
     3    3    4       2
     4    3    7       1
     5    4    5       1
     6    4   15       1
     7    5    6       1
     8    7    8      ar
     9    7   14      ar
    10    8    9       1
    11    8   11      ar
    12    9   10       1
    13   11   12      ar
    14   12   13      ar
    15   12   16       1
    16   13   14      ar
    17   14   15       1
    18   16   17       1
    19   17   18      ar
    20   17   22      ar
    21   18   19      ar
    22   19   20      ar
    23   20   21      ar
    24   21   22      ar
    25    2   23       1
    26    5   24       1
    27    5   25       1
    28    6   26       1
    29    6   27       1
    30    6   28       1
    31   10   29       1
    32   10   30       1
    33   10   31       1
    34   15   32       1
    35   18   33       1
    36   19   34       1
    37   20   35       1
    38   22   36       1
@<TRIPOS>SUBSTRUCTURE
     1 19Y301      1 GROUP             4 C     19Y     0 **** 19Y C 301
