@<TRIPOS>MOLECULE
1rpn_NDP_1_ligand
   73    77     1     0     0
SMALL
NO_CHARGES


@<TRIPOS>ATOM
     1 PA         103.4190    41.8280    37.8770 P.3          1 NDP1501   0.0000
     2 O1A        102.1310    41.5580    37.1840 O.co2        1 NDP1501   0.0000
     3 O2A        103.4630    41.7540    39.3540 O.co2        1 NDP1501  -1.0000
     4 O5B        103.8920    43.3120    37.5580 O.3          1 NDP1501   0.0000
     5 C5B        104.2120    43.7420    36.2420 C.3          1 NDP1501   0.0000
     6 C4B        103.1710    44.7190    35.7910 C.3          1 NDP1501   0.0000
     7 O4B        103.5730    45.5630    34.6770 O.3          1 NDP1501   0.0000
     8 C3B        102.7470    45.7710    36.7890 C.3          1 NDP1501   0.0000
     9 O3B        103.8450    46.6250    37.1170 O.3          1 NDP1501   0.0000
    10 C2B        101.8120    46.5150    35.8740 C.3          1 NDP1501   0.0000
    11 O2B        101.2420    47.6630    36.4460 O.3          1 NDP1501   0.0000
    12 C1B        102.7470    46.7340    34.6830 C.3          1 NDP1501   0.0000
    13 N9A        102.0080    46.7770    33.4260 N.pl3        1 NDP1501   0.0000
    14 C8A        100.9980    45.9420    33.0170 C.2          1 NDP1501   0.0000
    15 N7A        100.4400    46.3020    31.8890 N.2          1 NDP1501   0.0000
    16 C5A        101.1300    47.4500    31.5290 C.ar         1 NDP1501   0.0000
    17 C6A        101.0240    48.3090    30.4240 C.ar         1 NDP1501   0.0000
    18 N6A        100.1430    48.1420    29.4380 N.pl3        1 NDP1501   0.0000
    19 N1A        101.8680    49.3610    30.3660 N.ar         1 NDP1501   0.0000
    20 C2A        102.7540    49.5290    31.3560 C.ar         1 NDP1501   0.0000
    21 N3A        102.9490    48.7920    32.4430 N.ar         1 NDP1501   0.0000
    22 C4A        102.0950    47.7560    32.4700 C.ar         1 NDP1501   0.0000
    23 O3         104.5650    40.8310    37.2990 O.3          1 NDP1501   0.0000
    24 PN         105.9000    40.1310    37.9090 P.3          1 NDP1501   0.0000
    25 O1N        105.1660    39.0920    38.7410 O.co2        1 NDP1501   0.0000
    26 O2N        106.4570    41.3610    38.5950 O.co2        1 NDP1501  -1.0000
    27 O5D        106.5080    39.6940    36.5950 O.3          1 NDP1501   0.0000
    28 C5D        107.3890    40.5470    35.8740 C.3          1 NDP1501   0.0000
    29 C4D        107.4080    40.1270    34.4420 C.3          1 NDP1501   0.0000
    30 O4D        108.0160    38.8280    34.2110 O.3          1 NDP1501   0.0000
    31 C3D        106.1080    40.0980    33.6530 C.3          1 NDP1501   0.0000
    32 O3D        106.3780    40.3790    32.2850 O.3          1 NDP1501   0.0000
    33 C2D        105.6760    38.6470    33.8420 C.3          1 NDP1501   0.0000
    34 O2D        104.8390    38.2080    32.7950 O.3          1 NDP1501   0.0000
    35 C1D        107.0230    37.9330    33.7450 C.3          1 NDP1501   0.0000
    36 N1N        107.1910    36.6490    34.4420 N.ar         1 NDP1501   1.0000
    37 C2N        106.6660    36.4010    35.6780 C.ar         1 NDP1501   0.0000
    38 C3N        106.7730    35.2240    36.2820 C.ar         1 NDP1501   0.0000
    39 C7N        106.5530    35.1200    37.6090 C.2          1 NDP1501   0.0000
    40 O7N        106.4650    34.0540    38.2100 O.2          1 NDP1501   0.0000
    41 N7N        106.4540    36.2740    38.2680 N.am         1 NDP1501   0.0000
    42 C4N        107.3630    34.1990    35.6350 C.ar         1 NDP1501   0.0000
    43 C5N        108.0220    34.4320    34.4560 C.ar         1 NDP1501   0.0000
    44 C6N        107.9300    35.6490    33.8500 C.ar         1 NDP1501   0.0000
    45 P2B         99.8160    47.6380    36.8470 P.3          1 NDP1501   0.0000
    46 O1X         99.3900    49.0350    37.2850 O.co2        1 NDP1501   0.0000
    47 O2X         99.0300    47.0740    35.6630 O.co2        1 NDP1501  -1.0000
    48 O3X        100.0020    46.6610    37.9880 O.co2        1 NDP1501  -1.0000
    49 H5B1       104.2254    42.9554    35.6247 H            1 NDP1501   0.0000
    50 H5B2       105.1099    44.1822    36.2406 H            1 NDP1501   0.0000
    51 H4B        102.3588    44.2047    35.5156 H            1 NDP1501   0.0000
    52 H3B        102.2907    45.3898    37.5931 H            1 NDP1501   0.0000
    53 H5         103.5459    47.3137    37.7775 H            1 NDP1501   0.0000
    54 H2B        101.0770    45.8970    35.5952 H            1 NDP1501   0.0000
    55 H1B        103.2965    47.5605    34.8050 H            1 NDP1501   0.0000
    56 H8A        100.7148    45.1336    33.5330 H            1 NDP1501   0.0000
    57 H6A1       100.1164    48.7893    28.6763 H            1 NDP1501   0.0000
    58 H6A2        99.5085    47.3694    29.4599 H            1 NDP1501   0.0000
    59 H2A        103.3546    50.3231    31.2633 H            1 NDP1501   0.0000
    60 H5D1       108.3105    40.4774    36.2561 H            1 NDP1501   0.0000
    61 H5D2       107.0705    41.4925    35.9419 H            1 NDP1501   0.0000
    62 H4D        107.9945    40.7878    33.9736 H            1 NDP1501   0.0000
    63 H3D        105.4350    40.7332    34.0318 H            1 NDP1501   0.0000
    64 H16        105.8778    41.1995    32.0082 H            1 NDP1501   0.0000
    65 H2D        105.2499    38.5052    34.7355 H            1 NDP1501   0.0000
    66 H18        104.0180    38.7780    32.7633 H            1 NDP1501   0.0000
    67 H1D        107.2028    37.7696    32.7750 H            1 NDP1501   0.0000
    68 H2N        106.1801    37.1378    36.1482 H            1 NDP1501   0.0000
    69 H7N1       106.2911    36.2740    39.2546 H            1 NDP1501   0.0000
    70 H7N2       106.5426    37.1400    37.7759 H            1 NDP1501   0.0000
    71 H4N        107.3201    33.2742    36.0130 H            1 NDP1501   0.0000
    72 H5N        108.5714    33.7075    34.0397 H            1 NDP1501   0.0000
    73 H6N        108.3961    35.8149    32.9810 H            1 NDP1501   0.0000
@<TRIPOS>BOND
     1    1    2      ar
     2    1    3      ar
     3    1    4       1
     4    1   23       1
     5    4    5       1
     6    5    6       1
     7    6    7       1
     8    6    8       1
     9    7   12       1
    10    8    9       1
    11    8   10       1
    12   10   11       1
    13   10   12       1
    14   11   45       1
    15   12   13       1
    16   13   14       1
    17   13   22       1
    18   14   15       2
    19   15   16       1
    20   16   17      ar
    21   16   22      ar
    22   17   18       1
    23   17   19      ar
    24   19   20      ar
    25   20   21      ar
    26   21   22      ar
    27   23   24       1
    28   24   25      ar
    29   24   26      ar
    30   24   27       1
    31   27   28       1
    32   28   29       1
    33   29   30       1
    34   29   31       1
    35   30   35       1
    36   31   32       1
    37   31   33       1
    38   33   34       1
    39   33   35       1
    40   35   36       1
    41   36   37      ar
    42   36   44      ar
    43   37   38      ar
    44   38   39       1
    45   38   42      ar
    46   39   40       2
    47   39   41      am
    48   42   43      ar
    49   43   44      ar
    50   45   46      ar
    51   45   47      ar
    52   45   48      ar
    53   43   72       1
    54    5   49       1
    55    5   50       1
    56    6   51       1
    57    8   52       1
    58    9   53       1
    59   10   54       1
    60   12   55       1
    61   14   56       1
    62   18   57       1
    63   18   58       1
    64   20   59       1
    65   44   73       1
    66   28   60       1
    67   28   61       1
    68   29   62       1
    69   31   63       1
    70   32   64       1
    71   33   65       1
    72   34   66       1
    73   35   67       1
    74   37   68       1
    75   41   69       1
    76   41   70       1
    77   42   71       1
@<TRIPOS>SUBSTRUCTURE
     1 NDP1501     1 GROUP             4 A     NDP     0 **** NDP A1501
