@<TRIPOS>MOLECULE
4lv8_ADP_1_ligand
   39    41     1     0     0
SMALL
NO_CHARGES


@<TRIPOS>ATOM
     1 PB          13.0210   -74.8000   128.1820 P.3          1 ADP601   0.0000
     2 O1B         13.5610   -73.8710   127.1390 O.co2        1 ADP601   0.0000
     3 O2B         11.7110   -75.4780   127.8180 O.co2        1 ADP601  -1.0000
     4 O3B         14.0300   -75.7930   128.7290 O.co2        1 ADP601  -1.0000
     5 PA          13.1620   -72.5210   129.9570 P.3          1 ADP601   0.0000
     6 O1A         13.9530   -71.8680   128.8580 O.co2        1 ADP601   0.0000
     7 O2A         13.7480   -72.7150   131.3340 O.co2        1 ADP601  -1.0000
     8 O3A         12.5790   -73.9420   129.4740 O.3          1 ADP601   0.0000
     9 O5'         11.8270   -71.6670   130.1510 O.3          1 ADP601   0.0000
    10 C5'         10.9290   -71.5610   129.0510 C.3          1 ADP601   0.0000
    11 C4'         10.5430   -70.0930   128.9180 C.3          1 ADP601   0.0000
    12 O4'          9.9260   -69.6690   130.1450 O.3          1 ADP601   0.0000
    13 C3'         11.7470   -69.1820   128.6810 C.3          1 ADP601   0.0000
    14 O3'         11.3480   -68.1120   127.8040 O.3          1 ADP601   0.0000
    15 C2'         12.0110   -68.5670   130.0280 C.3          1 ADP601   0.0000
    16 O2'         12.5960   -67.2650   129.9250 O.3          1 ADP601   0.0000
    17 C1'         10.6170   -68.5030   130.6240 C.3          1 ADP601   0.0000
    18 N9          10.7220   -68.6060   132.0880 N.pl3        1 ADP601   0.0000
    19 C8          11.3360   -69.6130   132.7590 C.2          1 ADP601   0.0000
    20 N7          11.2410   -69.4210   134.0960 N.2          1 ADP601   0.0000
    21 C5          10.5550   -68.2670   134.2810 C.ar         1 ADP601   0.0000
    22 C6          10.1060   -67.4770   135.4510 C.ar         1 ADP601   0.0000
    23 N6          10.3810   -67.8520   136.7250 N.pl3        1 ADP601   0.0000
    24 N1           9.4250   -66.3500   135.2030 N.ar         1 ADP601   0.0000
    25 C2           9.1240   -65.9300   133.9560 C.ar         1 ADP601   0.0000
    26 N3           9.5010   -66.5810   132.8390 N.ar         1 ADP601   0.0000
    27 C4          10.2020   -67.7530   132.9580 C.ar         1 ADP601   0.0000
    28 H5'1        10.1138   -72.1148   129.2206 H            1 ADP601   0.0000
    29 H5'2        11.3763   -71.8741   128.2132 H            1 ADP601   0.0000
    30 H4'          9.8931   -69.9872   128.1654 H            1 ADP601   0.0000
    31 H3'         12.5386   -69.6833   128.3315 H            1 ADP601   0.0000
    32 H5          11.8873   -67.2950   128.0082 H            1 ADP601   0.0000
    33 H2'         12.5947   -69.1672   130.5748 H            1 ADP601   0.0000
    34 H7          13.5924   -67.3476   129.9086 H            1 ADP601   0.0000
    35 H1'         10.1447   -67.6645   130.3524 H            1 ADP601   0.0000
    36 H9          11.7948   -70.3890   132.3263 H            1 ADP601   0.0000
    37 H10         10.0615   -67.2936   137.4906 H            1 ADP601   0.0000
    38 H11         10.9032   -68.6869   136.8988 H            1 ADP601   0.0000
    39 H12          8.5918   -65.0893   133.8561 H            1 ADP601   0.0000
@<TRIPOS>BOND
     1    1    2      ar
     2    1    3      ar
     3    1    4      ar
     4    1    8       1
     5    5    6      ar
     6    5    7      ar
     7    5    8       1
     8    5    9       1
     9    9   10       1
    10   10   11       1
    11   11   12       1
    12   11   13       1
    13   12   17       1
    14   13   14       1
    15   13   15       1
    16   15   16       1
    17   15   17       1
    18   17   18       1
    19   18   19       1
    20   18   27       1
    21   19   20       2
    22   20   21       1
    23   21   22      ar
    24   21   27      ar
    25   22   23       1
    26   22   24      ar
    27   24   25      ar
    28   25   26      ar
    29   26   27      ar
    30   25   39       1
    31   23   38       1
    32   23   37       1
    33   10   28       1
    34   10   29       1
    35   11   30       1
    36   13   31       1
    37   14   32       1
    38   15   33       1
    39   16   34       1
    40   17   35       1
    41   19   36       1
@<TRIPOS>SUBSTRUCTURE
     1 ADP601      1 GROUP             4 A     ADP     0 **** ADP A 601
