@<TRIPOS>MOLECULE
4o95_245_1_ligand
   27    28     1     0     0
SMALL
NO_CHARGES


@<TRIPOS>ATOM
     1 CL7        -23.8850   -12.4940   -12.7840 Cl           1 245602   0.0000
     2 C1         -23.9200    -7.6170   -15.2700 C.2          1 245602   0.0000
     3 O1         -24.9200    -8.2560   -14.9590 O.2          1 245602   0.0000
     4 N2         -22.5970    -8.1810   -15.2090 N.am         1 245602   0.0000
     5 C3         -22.2180    -9.3430   -14.5810 C.ar         1 245602   0.0000
     6 C4         -20.8890    -9.4690   -14.2010 C.ar         1 245602   0.0000
     7 C5         -20.5100   -10.5970   -13.4510 C.ar         1 245602   0.0000
     8 N6         -21.4160   -11.4690   -13.0050 N.ar         1 245602   0.0000
     9 C7         -22.6910   -11.3490   -13.3020 C.ar         1 245602   0.0000
    10 C8         -23.1510   -10.2800   -14.0420 C.ar         1 245602   0.0000
    11 N9         -23.9680    -6.2990   -15.7510 N.am         1 245602   0.0000
    12 C10        -25.0990    -5.4750   -15.9220 C.ar         1 245602   0.0000
    13 C11        -26.4000    -5.9000   -15.6080 C.ar         1 245602   0.0000
    14 C12        -27.4710    -4.9880   -15.7620 C.ar         1 245602   0.0000
    15 C13        -27.2000    -3.6720   -16.2230 C.ar         1 245602   0.0000
    16 C14        -25.8970    -3.2320   -16.4760 C.ar         1 245602   0.0000
    17 C15        -24.8180    -4.1340   -16.2900 C.ar         1 245602   0.0000
    18 H1         -21.8740    -7.6710   -15.6750 H            1 245602   0.0000
    19 H2         -20.2164    -8.7738   -14.4546 H            1 245602   0.0000
    20 H3         -19.5426   -10.7483   -13.2481 H            1 245602   0.0000
    21 H4         -24.1313   -10.1619   -14.2000 H            1 245602   0.0000
    22 H5         -23.0895    -5.8937   -16.0041 H            1 245602   0.0000
    23 H6         -26.5667    -6.8304   -15.2814 H            1 245602   0.0000
    24 H7         -28.4074    -5.2666   -15.5488 H            1 245602   0.0000
    25 H8         -27.9627    -3.0423   -16.3708 H            1 245602   0.0000
    26 H9         -25.7283    -2.2955   -16.7834 H            1 245602   0.0000
    27 H10        -23.8740    -3.8293   -16.4163 H            1 245602   0.0000
@<TRIPOS>BOND
     1    1    9       1
     2    2    3       2
     3    2    4      am
     4    2   11      am
     5    4    5       1
     6    5    6      ar
     7    5   10      ar
     8    6    7      ar
     9    7    8      ar
    10    8    9      ar
    11    9   10      ar
    12   11   12       1
    13   12   13      ar
    14   12   17      ar
    15   13   14      ar
    16   14   15      ar
    17   15   16      ar
    18   16   17      ar
    19    4   18       1
    20    6   19       1
    21    7   20       1
    22   10   21       1
    23   11   22       1
    24   13   23       1
    25   14   24       1
    26   15   25       1
    27   16   26       1
    28   17   27       1
@<TRIPOS>SUBSTRUCTURE
     1 245602      1 GROUP             4 A     245     0 **** 245 A 602
