@<TRIPOS>MOLECULE
5ej8_TD6_6_ligand
   55    56     1     0     0
SMALL
NO_CHARGES


@<TRIPOS>ATOM
     1 S1         -17.7910    59.5850    62.9140 S.3          1 TD6602   0.0000
     2 C2         -17.2660    59.1890    64.5090 C.2          1 TD6602   0.0000
     3 N3         -16.6440    60.2570    65.0590 N.2          1 TD6602   1.0000
     4 C4         -16.5970    61.3400    64.2660 C.2          1 TD6602   0.0000
     5 C5         -17.1930    61.2130    63.0160 C.2          1 TD6602   0.0000
     6 C6         -17.3240    62.3290    61.9510 C.3          1 TD6602   0.0000
     7 C7         -16.6340    61.9730    60.6000 C.3          1 TD6602   0.0000
     8 O7         -16.9940    63.0070    59.7430 O.3          1 TD6602   0.0000
     9 PA         -16.7620    62.7520    58.1960 P.3          1 TD6602   0.0000
    10 PB         -19.4820    61.6910    57.7870 P.3          1 TD6602   0.0000
    11 N1'        -12.3100    60.9020    66.7110 N.ar         1 TD6602   1.0000
    12 C11        -17.5390    57.8920    65.1970 C.3          1 TD6602   0.0000
    13 C13        -17.0560    55.8840    63.8710 C.3          1 TD6602   0.0000
    14 O1A        -17.0390    64.0510    57.4740 O.co2        1 TD6602   0.0000
    15 O1B        -19.8980    63.0230    57.1570 O.co2        1 TD6602   0.0000
    16 C2'        -11.7440    59.8450    66.1070 C.ar         1 TD6602   0.0000
    17 O2A        -15.4120    62.1760    57.9370 O.co2        1 TD6602  -1.0000
    18 O2B        -19.8450    60.4970    56.9330 O.co2        1 TD6602  -1.0000
    19 N3'        -12.4760    58.8990    65.5740 N.ar         1 TD6602   0.0000
    20 O3A        -17.8690    61.6750    57.7950 O.3          1 TD6602   0.0000
    21 O3B        -19.9600    61.5910    59.2190 O.co2        1 TD6602  -1.0000
    22 C4'        -13.8380    58.9850    65.6700 C.ar         1 TD6602   0.0000
    23 N4'        -14.4800    57.9780    65.1180 N.pl3        1 TD6602   0.0000
    24 C5'        -14.4730    60.0580    66.2990 C.ar         1 TD6602   0.0000
    25 C6'        -13.6540    61.0440    66.8250 C.ar         1 TD6602   0.0000
    26 C7'        -16.0200    60.1830    66.4120 C.3          1 TD6602   0.0000
    27 OL1        -18.7350    58.3500    65.8680 O.3          1 TD6602   0.0000
    28 OL2        -18.1930    53.8160    63.7070 O.co2        1 TD6602   0.0000
    29 OL3        -17.6270    54.8250    61.8900 O.co2        1 TD6602  -1.0000
    30 CLB        -18.1660    56.8270    64.3030 C.3          1 TD6602   0.0000
    31 CLC        -17.6620    54.7640    63.1130 C.2          1 TD6602   0.0000
    32 CM2        -10.1950    59.7740    66.0060 C.3          1 TD6602   0.0000
    33 CM4        -15.9400    62.6540    64.7310 C.3          1 TD6602   0.0000
    34 H1         -16.9057    63.1628    62.3114 H            1 TD6602   0.0000
    35 H2         -18.2956    62.4911    61.7785 H            1 TD6602   0.0000
    36 H3         -16.9657    61.0953    60.2541 H            1 TD6602   0.0000
    37 H4         -15.6408    61.9342    60.7097 H            1 TD6602   0.0000
    38 H5         -16.8099    57.5674    65.7996 H            1 TD6602   0.0000
    39 H6         -16.5818    55.5290    64.6767 H            1 TD6602   0.0000
    40 H7         -16.4053    56.3723    63.2895 H            1 TD6602   0.0000
    41 H4'1       -15.4795    57.9514    65.1373 H            1 TD6602   0.0000
    42 H4'2       -13.9685    57.2392    64.6791 H            1 TD6602   0.0000
    43 H6'        -14.0458    61.8440    67.2794 H            1 TD6602   0.0000
    44 H7'1       -16.3792    59.3850    66.8958 H            1 TD6602   0.0000
    45 H7'2       -16.2457    61.0123    66.9233 H            1 TD6602   0.0000
    46 HL1        -18.4910    58.7360    66.7576 H            1 TD6602   0.0000
    47 HLB1       -18.5815    57.2557    63.5008 H            1 TD6602   0.0000
    48 HLB2       -18.8644    56.3227    64.8108 H            1 TD6602   0.0000
    49 HM21        -9.9300    58.9336    65.5332 H            1 TD6602   0.0000
    50 HM22        -9.8577    60.5646    65.4949 H            1 TD6602   0.0000
    51 HM23        -9.8005    59.7781    66.9249 H            1 TD6602   0.0000
    52 HM41       -16.0067    63.3360    64.0027 H            1 TD6602   0.0000
    53 HM42       -16.4096    62.9909    65.5471 H            1 TD6602   0.0000
    54 HM43       -14.9774    62.4879    64.9450 H            1 TD6602   0.0000
    55 H1'        -11.7177    61.6121    67.0916 H            1 TD6602   0.0000
@<TRIPOS>BOND
     1    1    2       1
     2    1    5       1
     3    2    3       2
     4    2   12       1
     5    3    4       1
     6    3   26       1
     7    4    5       2
     8    4   33       1
     9    5    6       1
    10    6    7       1
    11    7    8       1
    12    8    9       1
    13    9   14      ar
    14    9   17      ar
    15    9   20       1
    16   10   15      ar
    17   10   18      ar
    18   10   20       1
    19   10   21      ar
    20   11   16      ar
    21   11   25      ar
    22   12   27       1
    23   12   30       1
    24   13   30       1
    25   13   31       1
    26   16   19      ar
    27   16   32       1
    28   19   22      ar
    29   22   23       1
    30   22   24      ar
    31   24   25      ar
    32   24   26       1
    33   28   31      ar
    34   29   31      ar
    35    6   34       1
    36    6   35       1
    37    7   36       1
    38    7   37       1
    39   12   38       1
    40   13   39       1
    41   13   40       1
    42   33   54       1
    43   33   53       1
    44   33   52       1
    45   23   41       1
    46   23   42       1
    47   25   43       1
    48   26   44       1
    49   26   45       1
    50   27   46       1
    51   32   51       1
    52   30   47       1
    53   30   48       1
    54   32   49       1
    55   32   50       1
    56   11   55       1
@<TRIPOS>SUBSTRUCTURE
     1 TD6602      1 GROUP             4 F     TD6     0 **** TD6 F 602
