@<TRIPOS>MOLECULE
3dp9_BIG_2_ligand
   49    51     1     0     0
SMALL
NO_CHARGES


@<TRIPOS>ATOM
     1 C2          21.2270    -9.0140     9.7560 C.ar         1 BIG301   0.0000
     2 C5          23.8580    -9.7640    10.2880 C.ar         1 BIG301   0.0000
     3 C4          23.1470    -8.7300    11.0500 C.ar         1 BIG301   0.0000
     4 C8          25.2460    -9.0070    11.8520 C.2          1 BIG301   0.0000
     5 O3'         20.8970    -7.3180    16.2090 O.3          1 BIG301   0.0000
     6 C3'         21.0040    -8.1740    15.0720 C.3          1 BIG301   0.0000
     7 C4'         21.9940    -9.2740    15.3910 C.3          1 BIG301   0.0000
     8 C5'         21.6800   -10.5540    14.6190 C.3          1 BIG301   0.0000
     9 S5'         20.3880   -11.4340    15.4340 S.3          1 BIG301   0.0000
    10 C20         21.1630   -12.3430    16.7250 C.3          1 BIG301   0.0000
    11 C21         20.1080   -13.0770    17.5440 C.3          1 BIG301   0.0000
    12 C22         20.6330   -13.4330    18.9350 C.3          1 BIG301   0.0000
    13 C23         21.8790   -14.2970    18.8450 C.3          1 BIG301   0.0000
    14 C1'         23.3610    -8.7360    14.9710 C.3          1 BIG301   0.0000
    15 N1'         23.0970    -7.4400    14.3150 N.4          1 BIG301   1.0000
    16 C2'         21.6610    -7.3700    13.9680 C.3          1 BIG301   0.0000
    17 C10         23.9510    -7.1850    13.1350 C.3          1 BIG301   0.0000
    18 N7          25.0880    -9.8720    10.8100 N.pl3        1 BIG301   0.0000
    19 C6          23.0910   -10.4030     9.1950 C.ar         1 BIG301   0.0000
    20 N6          23.6490   -11.3660     8.4160 N.pl3        1 BIG301   0.0000
    21 N3          21.8550    -8.3880    10.7690 N.ar         1 BIG301   0.0000
    22 C9          24.0960    -8.2610    12.0880 C.2          1 BIG301   0.0000
    23 N1          21.8130    -9.9810     9.0030 N.ar         1 BIG301   0.0000
    24 H1          20.2839    -8.7547     9.5478 H            1 BIG301   0.0000
    25 H2          26.0886    -8.9193    12.3834 H            1 BIG301   0.0000
    26 H3'         20.2456    -6.5848    16.0141 H            1 BIG301   0.0000
    27 H4          20.1158    -8.5386    14.7924 H            1 BIG301   0.0000
    28 H4'         21.9897    -9.4603    16.3735 H            1 BIG301   0.0000
    29 H5'1        22.4985   -11.1271    14.5778 H            1 BIG301   0.0000
    30 H5'2        21.3896   -10.3203    13.6911 H            1 BIG301   0.0000
    31 H8          21.6658   -11.7143    17.3182 H            1 BIG301   0.0000
    32 H9          21.7973   -13.0070    16.3291 H            1 BIG301   0.0000
    33 H10         19.8525   -13.9180    17.0672 H            1 BIG301   0.0000
    34 H11         19.3037   -12.4905    17.6397 H            1 BIG301   0.0000
    35 H12         19.9245   -13.9326    19.4334 H            1 BIG301   0.0000
    36 H13         20.8547   -12.5904    19.4259 H            1 BIG301   0.0000
    37 H14         22.2008   -14.5148    19.7664 H            1 BIG301   0.0000
    38 H15         21.6632   -15.1436    18.3585 H            1 BIG301   0.0000
    39 H16         22.5933   -13.8014    18.3509 H            1 BIG301   0.0000
    40 H1'1        23.8024    -9.3663    14.3324 H            1 BIG301   0.0000
    41 H1'2        23.9464    -8.6085    15.7717 H            1 BIG301   0.0000
    42 H2'1        21.3364    -6.4242    13.9702 H            1 BIG301   0.0000
    43 H2'2        21.4872    -7.7800    13.0726 H            1 BIG301   0.0000
    44 H21         24.8690    -6.9833    13.4764 H            1 BIG301   0.0000
    45 H22         23.5814    -6.3774    12.6754 H            1 BIG301   0.0000
    46 H23         25.7926   -10.5004    10.4805 H            1 BIG301   0.0000
    47 H24         23.1157   -11.7867     7.6821 H            1 BIG301   0.0000
    48 H25         24.5930   -11.6542     8.5765 H            1 BIG301   0.0000
    49 H1'         23.2820    -6.7196    14.9834 H            1 BIG301   0.0000
@<TRIPOS>BOND
     1    1   21      ar
     2    1   23      ar
     3    2    3      ar
     4    2   18       1
     5    2   19      ar
     6    3   21      ar
     7    3   22       1
     8    4   18       1
     9    4   22       2
    10    5    6       1
    11    6    7       1
    12    6   16       1
    13    7    8       1
    14    7   14       1
    15    8    9       1
    16    9   10       1
    17   10   11       1
    18   11   12       1
    19   12   13       1
    20   14   15       1
    21   15   16       1
    22   15   17       1
    23   17   22       1
    24   19   20       1
    25   19   23      ar
    26    1   24       1
    27    4   25       1
    28    5   26       1
    29    6   27       1
    30    7   28       1
    31    8   29       1
    32    8   30       1
    33   10   31       1
    34   10   32       1
    35   11   33       1
    36   11   34       1
    37   12   35       1
    38   12   36       1
    39   13   37       1
    40   13   38       1
    41   13   39       1
    42   14   40       1
    43   14   41       1
    44   16   42       1
    45   16   43       1
    46   17   44       1
    47   17   45       1
    48   18   46       1
    49   20   47       1
    50   20   48       1
    51   15   49       1
@<TRIPOS>SUBSTRUCTURE
     1 BIG301      1 GROUP             4 C     BIG     0 **** BIG C 301
