@<TRIPOS>MOLECULE
./coach420/3ll3/ligand.pdb
 52 51 0 0 0
SMALL
GASTEIGER

@<TRIPOS>ATOM
      1  PG        -0.3220   27.7060   -2.5290 P.3   1760  ATP1760     0.5373
      2  O1G       -1.4040   28.6230   -1.6620 O.3   1760  ATP1760    -0.1143
      3  O2G       -0.8910   26.1540   -2.6920 O.2   1760  ATP1760    -0.2221
      4  O3G        0.9800   27.7250   -1.8660 O.3   1760  ATP1760    -0.1143
      5  PB        -0.6370   29.8870   -4.3600 P.3   1760  ATP1760     0.2277
      6  O1B       -0.2110   30.1750   -5.9220 O.2   1760  ATP1760    -0.5168
      7  O2B       -0.0310   30.8450   -3.4440 O.3   1760  ATP1760    -0.4368
      8  O3B       -0.1470   28.3320   -4.0470 O.3   1760  ATP1760    -0.2258
      9  PA        -3.4600   29.6360   -5.1940 P.3   1760  ATP1760     0.2189
     10  O1A       -3.2730   28.2600   -6.0650 O.2   1760  ATP1760    -0.5170
     11  O2A       -4.6960   29.6410   -4.4230 O.3   1760  ATP1760    -0.4371
     12  O3A       -2.2720   29.9770   -4.0910 O.3   1760  ATP1760    -0.2700
     13  O5'       -3.5460   30.8610   -6.2880 O.3   1760  ATP1760    -0.3112
     14  C5'       -3.5130   32.1850   -5.8100 C.3   1760  ATP1760     0.1813
     15  C4'       -4.0450   33.0910   -6.8940 C.3   1760  ATP1760     0.1801
     16  O4'       -5.3760   32.9000   -7.3460 O.3   1760  ATP1760    -0.3306
     17  C3'       -3.7860   34.6270   -6.8600 C.3   1760  ATP1760     0.2161
     18  O3'       -2.6490   35.0480   -7.5540 O.3   1760  ATP1760    -0.2175
     19  C2'       -5.1720   35.2580   -7.2500 C.3   1760  ATP1760     0.2337
     20  O2'       -5.0500   36.4480   -7.9800 O.3   1760  ATP1760    -0.2155
     21  C1'       -5.8160   34.0840   -7.9540 C.3   1760  ATP1760     0.2409
     22  N9        -7.2650   34.0390   -7.8230 N.ar  1760  ATP1760    -0.2693
     23  C8        -8.0010   34.1010   -6.6960 C.ar  1760  ATP1760     0.1816
     24  N7        -9.3540   33.8890   -7.0830 N.ar  1760  ATP1760    -0.2193
     25  C5        -9.3840   33.6810   -8.4810 C.ar  1760  ATP1760     0.1518
     26  C6       -10.4380   33.4150   -9.3850 C.ar  1760  ATP1760     0.1919
     27  N6       -11.7980   33.2800   -8.8780 N.pl3 1760  ATP1760    -0.1054
     28  N1       -10.1820   33.2470  -10.6870 N.ar  1760  ATP1760    -0.2040
     29  C2        -8.8970   33.3350  -11.1730 C.ar  1760  ATP1760     0.2016
     30  N3        -7.8720   33.5970  -10.2810 N.ar  1760  ATP1760    -0.2048
     31  C4        -8.1310   33.7660   -8.9540 C.ar  1760  ATP1760     0.1692
     32  C2        13.1360   42.3340  -11.4220 C.2   3264  DXP3264     0.2427
     33  C3        12.7780   40.9690  -10.7820 C.3   3264  DXP3264     0.2485
     34  C4        13.2430   39.8620  -11.7500 C.3   3264  DXP3264     0.2197
     35  C5        12.7330   38.4000  -11.7250 C.3   3264  DXP3264     0.1896
     36  O2        12.2960   43.0020  -11.9260 O.2   3264  DXP3264    -0.2854
     37  O3        11.4850   40.9550  -10.3190 O.3   3264  DXP3264    -0.2118
     38  O4        13.2750   40.4060  -13.0310 O.3   3264  DXP3264    -0.2172
     39  O5        12.3560   37.8240  -12.9480 O.3   3264  DXP3264    -0.2674
     40  P         12.7310   36.3080  -13.5130 P.3   3264  DXP3264     0.5327
     41  O2P       14.1930   36.3220  -14.1450 O.3   3264  DXP3264    -0.1145
     42  O1P       12.4100   35.2160  -12.3840 O.3   3264  DXP3264    -0.1145
     43  O3P       11.9670   36.0110  -14.6640 O.2   3264  DXP3264    -0.2224
     44  C2        11.2770   25.4080  -10.6500 C.2   7778  XUL7778     0.2427
     45  C3        11.0680   26.5410   -9.6070 C.3   7778  XUL7778     0.2486
     46  C4        10.2530   26.1580   -8.3560 C.3   7778  XUL7778     0.2225
     47  C5        11.0040   25.2260   -7.3860 C.3   7778  XUL7778     0.2179
     48  O1         9.6040   24.0280  -11.7070 O.3   7778  XUL7778     0.0000
     49  O2        12.0640   25.5470  -11.5560 O.2   7778  XUL7778    -0.2854
     50  O3        10.3830   27.6090  -10.2130 O.3   7778  XUL7778    -0.2118
     51  O4         9.9330   27.3530   -7.6810 O.3   7778  XUL7778    -0.2171
     52  O5        10.4930   25.3310   -6.0790 O.3   7778  XUL7778    -0.2175
@<TRIPOS>BOND
     1     1     8    1
     2     1     3    2
     3     1     4    1
     4     1     2    1
     5     5     6    2
     6     5    12    1
     7     5     8    1
     8     5     7    1
     9     9    13    1
    10     9    10    2
    11     9    11    1
    12     9    12    1
    13    13    14    1
    14    14    15    1
    15    15    16    1
    16    15    17    1
    17    16    21    1
    18    17    18    1
    19    17    19    1
    20    19    20    1
    21    19    21    1
    22    21    22    1
    23    22    31   ar
    24    22    23   ar
    25    23    24   ar
    26    24    25   ar
    27    25    26   ar
    28    25    31   ar
    29    26    28   ar
    30    26    27    1
    31    28    29   ar
    32    29    30   ar
    33    30    31   ar
    34    32    36    2
    35    32    33    1
    36    33    34    1
    37    33    37    1
    38    34    38    1
    39    34    35    1
    40    35    39    1
    41    39    40    1
    42    40    43    2
    43    40    41    1
    44    40    42    1
    45    44    49    2
    46    44    45    1
    47    45    50    1
    48    45    46    1
    49    46    51    1
    50    46    47    1
    51    47    52    1
