@<TRIPOS>MOLECULE
3euf_BAU_3_ligand
   35    36     1     0     0
SMALL
NO_CHARGES


@<TRIPOS>ATOM
     1 OAC         23.8020    44.7730   -39.7810 O.3          1 BAU400   0.0000
     2 CAJ         22.9940    43.5810   -39.9060 C.3          1 BAU400   0.0000
     3 CAK         21.6950    43.6590   -39.0250 C.3          1 BAU400   0.0000
     4 OAO         21.7220    43.3730   -37.6120 O.3          1 BAU400   0.0000
     5 CAM         20.6050    44.2020   -37.5270 C.2          1 BAU400   0.0000
     6 NAT         20.7740    45.4300   -37.0770 N.2          1 BAU400   1.0000
     7 CAS         19.6080    46.1430   -37.4120 C.2          1 BAU400   0.0000
     8 OAB         18.6940    45.4830   -37.9860 O.2          1 BAU400   0.0000
     9 NAN         19.4720    47.4230   -37.0370 N.am         1 BAU400   0.0000
    10 CAR         20.5230    48.0140   -36.4440 C.2          1 BAU400   0.0000
    11 OAA         20.3850    49.2080   -36.1500 O.2          1 BAU400   0.0000
    12 CAI         21.8750    45.9890   -36.4990 C.2          1 BAU400   0.0000
    13 CAQ         21.7270    47.3290   -36.1340 C.2          1 BAU400   0.0000
    14 CAL         22.8790    48.0710   -35.4580 C.3          1 BAU400   0.0000
    15 CG          23.7060    48.7830   -36.4850 C.ar         1 BAU400   0.0000
    16 CD2         24.4380    48.0430   -37.3950 C.ar         1 BAU400   0.0000
    17 CE2         25.1950    48.6930   -38.3460 C.ar         1 BAU400   0.0000
    18 CZ          25.2180    50.0730   -38.3970 C.ar         1 BAU400   0.0000
    19 CE1         24.4880    50.8430   -37.5040 C.ar         1 BAU400   0.0000
    20 CD1         23.7280    50.1780   -36.5290 C.ar         1 BAU400   0.0000
    21 HAC         24.4537    44.6569   -39.0314 H            1 BAU400   0.0000
    22 HAJ1        23.5349    42.7917   -39.6153 H            1 BAU400   0.0000
    23 HAJ2        22.7289    43.4690   -40.8637 H            1 BAU400   0.0000
    24 HAK1        21.0415    43.0191   -39.4294 H            1 BAU400   0.0000
    25 HAK2        21.3480    44.5924   -39.1169 H            1 BAU400   0.0000
    26 HAM         19.7003    43.8747   -37.7997 H            1 BAU400   0.0000
    27 HAN         18.6186    47.9203   -37.1931 H            1 BAU400   0.0000
    28 HAI         22.7222    45.4795   -36.3482 H            1 BAU400   0.0000
    29 HAL1        23.4529    47.4148   -34.9682 H            1 BAU400   0.0000
    30 HAL2        22.5087    48.7378   -34.8113 H            1 BAU400   0.0000
    31 HD2         24.4184    47.0437   -37.3635 H            1 BAU400   0.0000
    32 HE2         25.7307    48.1623   -39.0028 H            1 BAU400   0.0000
    33 HZ          25.7735    50.5272   -39.0935 H            1 BAU400   0.0000
    34 HE1         24.5026    51.8417   -37.5532 H            1 BAU400   0.0000
    35 HD1         23.2003    50.7057   -35.8634 H            1 BAU400   0.0000
@<TRIPOS>BOND
     1    1    2       1
     2    2    3       1
     3    3    4       1
     4    4    5       1
     5    5    6       2
     6    6    7       1
     7    6   12       1
     8    7    8       2
     9    7    9      am
    10    9   10      am
    11   10   11       2
    12   10   13       1
    13   12   13       2
    14   13   14       1
    15   14   15       1
    16   15   16      ar
    17   15   20      ar
    18   16   17      ar
    19   17   18      ar
    20   18   19      ar
    21   19   20      ar
    22    1   21       1
    23    2   22       1
    24    2   23       1
    25    3   24       1
    26    3   25       1
    27    5   26       1
    28    9   27       1
    29   12   28       1
    30   14   29       1
    31   14   30       1
    32   16   31       1
    33   17   32       1
    34   18   33       1
    35   19   34       1
    36   20   35       1
@<TRIPOS>SUBSTRUCTURE
     1 BAU400      1 GROUP             4 C     BAU     0 **** BAU C 400
