@<TRIPOS>MOLECULE
1gp6_DH2_2_ligand
   34    36     1     0     0
SMALL
NO_CHARGES


@<TRIPOS>ATOM
     1 C1          10.8640    28.1160    -0.6030 C.ar         1 DH2385   0.0000
     2 C2          11.1300    26.7660    -0.3640 C.ar         1 DH2385   0.0000
     3 C3          12.4430    26.2340    -0.4360 C.ar         1 DH2385   0.0000
     4 C4          13.5090    27.1260    -0.8660 C.ar         1 DH2385   0.0000
     5 C5          13.2510    28.4960    -1.1180 C.ar         1 DH2385   0.0000
     6 C6          11.9390    28.9790    -0.9670 C.ar         1 DH2385   0.0000
     7 C9          12.7360    24.8360    -0.1300 C.2          1 DH2385   0.0000
     8 C10         14.1830    24.3980    -0.1840 C.3          1 DH2385   0.0000
     9 C11         14.9700    25.2000    -1.1820 C.3          1 DH2385   0.0000
    10 C14         16.4220    24.8260    -1.2460 C.ar         1 DH2385   0.0000
    11 C15         16.8670    23.7510    -2.0350 C.ar         1 DH2385   0.0000
    12 C16         18.2230    23.3740    -2.0590 C.ar         1 DH2385   0.0000
    13 C17         19.1470    24.0940    -1.2850 C.ar         1 DH2385   0.0000
    14 C18         18.7010    25.1780    -0.5000 C.ar         1 DH2385   0.0000
    15 C19         17.3590    25.5350    -0.4810 C.ar         1 DH2385   0.0000
    16 O12         14.8060    26.6590    -1.0380 O.3          1 DH2385   0.0000
    17 O13         11.8380    24.0110     0.2250 O.2          1 DH2385   0.0000
    18 O23         19.5840    25.8890     0.2520 O.3          1 DH2385   0.0000
    19 O24         20.4800    23.7710    -1.2510 O.3          1 DH2385   0.0000
    20 O27         14.3650    22.9800    -0.2230 O.3          1 DH2385   0.0000
    21 O29         11.6390    30.2950    -1.1770 O.3          1 DH2385   0.0000
    22 O30         10.1100    25.9440    -0.0250 O.3          1 DH2385   0.0000
    23 H1           9.9333    28.4721    -0.5201 H            1 DH2385   0.0000
    24 H2          13.9894    29.1092    -1.3985 H            1 DH2385   0.0000
    25 H3          14.5570    24.6709     0.7024 H            1 DH2385   0.0000
    26 H4          14.5894    24.9699    -2.0777 H            1 DH2385   0.0000
    27 H5          16.2074    23.2442    -2.5900 H            1 DH2385   0.0000
    28 H6          18.5244    22.6031    -2.6202 H            1 DH2385   0.0000
    29 H7          17.0585    26.3041     0.0830 H            1 DH2385   0.0000
    30 H8          20.5535    25.6440     0.2498 H            1 DH2385   0.0000
    31 H9          21.1099    24.3061    -0.6881 H            1 DH2385   0.0000
    32 H10         13.9155    22.6084    -1.0353 H            1 DH2385   0.0000
    33 H11         12.3609    30.9375    -1.4340 H            1 DH2385   0.0000
    34 H12         10.2854    24.9750     0.1491 H            1 DH2385   0.0000
@<TRIPOS>BOND
     1    1    2      ar
     2    1    6      ar
     3    2    3      ar
     4    2   22       1
     5    3    4      ar
     6    3    7       1
     7    4    5      ar
     8    4   16       1
     9    5    6      ar
    10    6   21       1
    11    7    8       1
    12    7   17       2
    13    8    9       1
    14    8   20       1
    15    9   10       1
    16    9   16       1
    17   10   11      ar
    18   10   15      ar
    19   11   12      ar
    20   12   13      ar
    21   13   14      ar
    22   13   19       1
    23   14   15      ar
    24   14   18       1
    25    1   23       1
    26    5   24       1
    27    8   25       1
    28    9   26       1
    29   11   27       1
    30   12   28       1
    31   15   29       1
    32   18   30       1
    33   19   31       1
    34   20   32       1
    35   21   33       1
    36   22   34       1
@<TRIPOS>SUBSTRUCTURE
     1 DH2385      1 GROUP             4 A     DH2     0 **** DH2 A 385
