@<TRIPOS>MOLECULE
./coach420/1y3i/ligand.pdb
 44 48 0 0 0
SMALL
GASTEIGER

@<TRIPOS>ATOM
      1  PA        44.1320    7.0650  -19.0860 P.3   501  NAD501      0.2189
      2  O1A       45.5920    7.2730  -19.2400 O.3   501  NAD501     -0.4371
      3  O2A       43.4840    6.0420  -19.9510 O.2   501  NAD501     -0.5170
      4  O5B       43.8470    6.6560  -17.5460 O.3   501  NAD501     -0.3112
      5  C5B       43.8940    7.7140  -16.5820 C.3   501  NAD501      0.1813
      6  C4B       43.2490    7.2710  -15.2660 C.3   501  NAD501      0.1801
      7  O4B       43.7870    8.0980  -14.2360 O.3   501  NAD501     -0.3306
      8  C3B       41.7450    7.5350  -15.3250 C.3   501  NAD501      0.2161
      9  O3B       41.0530    6.6790  -14.4130 O.3   501  NAD501     -0.2175
     10  C2B       41.6630    8.9870  -14.8290 C.3   501  NAD501      0.2337
     11  O2B       40.4020    9.2050  -14.1870 O.3   501  NAD501     -0.2155
     12  C1B       42.7710    8.9910  -13.7870 C.3   501  NAD501      0.2409
     13  N9A       43.3620   10.3310  -13.6310 N.ar  501  NAD501     -0.2693
     14  C8A       43.8610   11.1250  -14.5660 C.ar  501  NAD501      0.1816
     15  N7A       44.3770   12.2000  -13.9680 N.ar  501  NAD501     -0.2193
     16  C5A       44.1990   12.0890  -12.6560 C.ar  501  NAD501      0.1518
     17  C6A       44.5110   12.8530  -11.5390 C.ar  501  NAD501      0.1919
     18  N6A       45.1800   13.9920  -11.6710 N.pl3 501  NAD501     -0.1054
     19  N1A       44.1440   12.4190  -10.3240 N.ar  501  NAD501     -0.2040
     20  C2A       43.5010   11.2800  -10.1700 C.ar  501  NAD501      0.2016
     21  N3A       43.1960   10.5130  -11.1970 N.ar  501  NAD501     -0.2048
     22  C4A       43.5300   10.8890  -12.4360 C.ar  501  NAD501      0.1692
     23  O3        43.3190    8.4350  -19.1940 O.3   501  NAD501     -0.2703
     24  PN        43.7920    9.9550  -19.1270 P.3   501  NAD501      0.2189
     25  O1N       42.5640   10.7740  -18.8760 O.3   501  NAD501     -0.4371
     26  O2N       44.5990   10.2920  -20.3320 O.2   501  NAD501     -0.5170
     27  O5D       44.7160   10.0900  -17.8200 O.3   501  NAD501     -0.3112
     28  C5D       45.9740   10.7900  -17.8980 C.3   501  NAD501      0.1813
     29  C4D       46.8870   10.2450  -16.8070 C.3   501  NAD501      0.1799
     30  O4D       47.1530    8.8590  -17.0880 O.3   501  NAD501     -0.3327
     31  C3D       48.2960   10.8230  -16.8130 C.3   501  NAD501      0.2158
     32  O3D       48.3140   12.0270  -16.0340 O.3   501  NAD501     -0.2175
     33  C2D       49.0810    9.7250  -16.0640 C.3   501  NAD501      0.2309
     34  O2D       49.2270   10.1420  -14.6940 O.3   501  NAD501     -0.2158
     35  C1D       48.1380    8.5280  -16.1030 C.3   501  NAD501      0.2261
     36  N1N       48.7890    7.2600  -16.4500 N.pl3 501  NAD501     -0.2831
     37  C2N       48.7790    6.2310  -15.4990 C.2   501  NAD501      0.0633
     38  C3N       49.3400    4.9930  -15.7750 C.2   501  NAD501      0.0490
     39  C7N       49.3850    3.9470  -14.6550 C.2   501  NAD501      0.2814
     40  O7N       50.3100    3.1440  -14.5300 O.2   501  NAD501     -0.2670
     41  N7N       48.3360    3.9900  -13.8320 N.am  501  NAD501     -0.0839
     42  C4N       49.8850    4.6810  -17.1660 C.3   501  NAD501      0.0341
     43  C5N       49.6620    5.7160  -18.0650 C.3   501  NAD501      0.0264
     44  C6N       49.3920    7.0250  -17.6890 C.3   501  NAD501      0.0934
@<TRIPOS>BOND
     1     1     3    2
     2     1     2    1
     3     1    23    1
     4     1     4    1
     5     4     5    1
     6     5     6    1
     7     6     8    1
     8     6     7    1
     9     7    12    1
    10     8    10    1
    11     8     9    1
    12    10    11    1
    13    10    12    1
    14    12    13    1
    15    13    14   ar
    16    13    22   ar
    17    14    15   ar
    18    15    16   ar
    19    16    22   ar
    20    16    17   ar
    21    17    18    1
    22    17    19   ar
    23    19    20   ar
    24    20    21   ar
    25    21    22   ar
    26    23    24    1
    27    24    26    2
    28    24    25    1
    29    24    27    1
    30    27    28    1
    31    28    29    1
    32    29    30    1
    33    29    31    1
    34    30    35    1
    35    31    33    1
    36    31    32    1
    37    33    35    1
    38    33    34    1
    39    35    36    1
    40    36    44    1
    41    36    37    1
    42    37    38    2
    43    38    42    1
    44    38    39    1
    45    39    40    2
    46    39    41   am
    47    42    43    1
    48    43    44    1
