@<TRIPOS>MOLECULE
3kuc_GDP_1_ligand
   40    42     1     0     0
SMALL
NO_CHARGES


@<TRIPOS>ATOM
     1 PB          -1.2940    -9.8380    21.0070 P.3          1 GDP170   0.0000
     2 O1B         -2.4580    -9.6270    22.0290 O.co2        1 GDP170   0.0000
     3 O2B         -1.2790   -11.1540    20.4270 O.co2        1 GDP170  -1.0000
     4 O3B         -1.2200    -8.7340    19.9300 O.co2        1 GDP170  -1.0000
     5 O3A          0.0710    -9.6390    21.8930 O.3          1 GDP170   0.0000
     6 PA           1.3300   -10.6150    22.0270 P.3          1 GDP170   0.0000
     7 O1A          1.9450   -10.4390    20.6450 O.co2        1 GDP170   0.0000
     8 O2A          1.0370   -11.9440    22.5510 O.co2        1 GDP170  -1.0000
     9 O5'          2.1990    -9.8080    23.1090 O.3          1 GDP170   0.0000
    10 C5'          2.5130    -8.4210    22.9490 C.3          1 GDP170   0.0000
    11 C4'          3.8080    -8.1350    23.7740 C.3          1 GDP170   0.0000
    12 O4'          3.5630    -8.3390    25.1790 O.3          1 GDP170   0.0000
    13 C3'          4.8920    -9.1510    23.4450 C.3          1 GDP170   0.0000
    14 O3'          6.1940    -8.5500    23.4750 O.3          1 GDP170   0.0000
    15 C2'          4.8730   -10.1420    24.5670 C.3          1 GDP170   0.0000
    16 O2'          6.1750   -10.5640    24.8210 O.3          1 GDP170   0.0000
    17 C1'          4.4050    -9.2790    25.7310 C.3          1 GDP170   0.0000
    18 N9           3.6020   -10.0270    26.6930 N.pl3        1 GDP170   0.0000
    19 C8           2.5370   -10.8280    26.4100 C.2          1 GDP170   0.0000
    20 N7           2.0580   -11.3560    27.5350 N.2          1 GDP170   0.0000
    21 C5           2.8670   -10.9250    28.5460 C.2          1 GDP170   0.0000
    22 C6           2.9670   -11.1220    29.9780 C.2          1 GDP170   0.0000
    23 O6           2.1160   -11.8010    30.5500 O.2          1 GDP170   0.0000
    24 N1           3.9370   -10.4530    30.6660 N.pl3        1 GDP170   0.0000
    25 C2           4.8670    -9.7060    30.0390 C.2          1 GDP170   0.0000
    26 N2           5.8230    -9.0490    30.7320 N.pl3        1 GDP170   0.0000
    27 N3           4.8410    -9.4760    28.7200 N.2          1 GDP170   0.0000
    28 C4           3.8600   -10.0340    27.9770 C.2          1 GDP170   0.0000
    29 H5'1         1.7597    -7.8588    23.2901 H            1 GDP170   0.0000
    30 H5'2         2.6712    -8.2159    21.9831 H            1 GDP170   0.0000
    31 H4'          4.1345    -7.2050    23.6052 H            1 GDP170   0.0000
    32 H3'          4.7179    -9.5951    22.5661 H            1 GDP170   0.0000
    33 H5           6.7576    -9.0098    24.1612 H            1 GDP170   0.0000
    34 H2'          4.2539   -10.9067    24.3880 H            1 GDP170   0.0000
    35 H7           6.2367   -11.5532    24.6879 H            1 GDP170   0.0000
    36 H1'          5.1816    -8.8392    26.1821 H            1 GDP170   0.0000
    37 H9           2.1699   -10.9946    25.4948 H            1 GDP170   0.0000
    38 H10          3.9584   -10.5189    31.6636 H            1 GDP170   0.0000
    39 H11          6.5038    -8.5000    30.2472 H            1 GDP170   0.0000
    40 H12          5.8497    -9.1118    31.7297 H            1 GDP170   0.0000
@<TRIPOS>BOND
     1    1    2      ar
     2    1    3      ar
     3    1    4      ar
     4    1    5       1
     5    5    6       1
     6    6    7      ar
     7    6    8      ar
     8    6    9       1
     9    9   10       1
    10   10   11       1
    11   11   12       1
    12   11   13       1
    13   12   17       1
    14   13   14       1
    15   13   15       1
    16   15   16       1
    17   15   17       1
    18   17   18       1
    19   18   19       1
    20   18   28       1
    21   19   20       2
    22   20   21       1
    23   21   22       1
    24   21   28       2
    25   22   23       2
    26   22   24       1
    27   24   25       1
    28   25   26       1
    29   25   27       2
    30   27   28       1
    31   26   40       1
    32   26   39       1
    33   24   38       1
    34   10   29       1
    35   10   30       1
    36   11   31       1
    37   13   32       1
    38   14   33       1
    39   15   34       1
    40   16   35       1
    41   17   36       1
    42   19   37       1
@<TRIPOS>SUBSTRUCTURE
     1 GDP170      1 GROUP             4 A     GDP     0 **** GDP A 170
