@<TRIPOS>MOLECULE
2p0a_ANP_2_ligand
   44    46     1     0     0
SMALL
NO_CHARGES


@<TRIPOS>ATOM
     1 PG          15.9500    10.9960   -14.7920 P.3          1 ANP705   0.0000
     2 O1G         14.6780    10.2150   -14.8110 O.co2        1 ANP705   0.0000
     3 O2G         16.2430    11.7090   -16.2110 O.co2        1 ANP705  -1.0000
     4 O3G         15.9100    12.1020   -13.6660 O.co2        1 ANP705  -1.0000
     5 PB          17.7420     9.6600   -13.0060 P.3          1 ANP705   0.0000
     6 O1B         16.6270     9.1630   -12.1770 O.co2        1 ANP705   0.0000
     7 O2B         18.5710    10.7860   -12.4590 O.co2        1 ANP705  -1.0000
     8 N3B         17.3010    10.0450   -14.5510 N.3          1 ANP705   0.0000
     9 PA          19.7540     7.9480   -14.3250 P.3          1 ANP705   0.0000
    10 O1A         19.7800     8.9220   -15.4200 O.co2        1 ANP705   0.0000
    11 O2A         19.6830     6.4910   -14.5980 O.co2        1 ANP705  -1.0000
    12 O3A         18.6850     8.3630   -13.1460 O.3          1 ANP705   0.0000
    13 O5'         21.0920     8.1130   -13.5320 O.3          1 ANP705   0.0000
    14 C5'         21.5050     9.4560   -13.0860 C.3          1 ANP705   0.0000
    15 C4'         22.9340     9.7810   -13.5410 C.3          1 ANP705   0.0000
    16 O4'         23.8450     8.8560   -12.9260 O.3          1 ANP705   0.0000
    17 C3'         23.1670     9.6620   -15.0630 C.3          1 ANP705   0.0000
    18 O3'         22.9460    10.9280   -15.7120 O.3          1 ANP705   0.0000
    19 C2'         24.6580     9.3140   -15.1390 C.3          1 ANP705   0.0000
    20 O2'         25.4580    10.5060   -15.0630 O.3          1 ANP705   0.0000
    21 C1'         24.8510     8.4410   -13.9050 C.3          1 ANP705   0.0000
    22 N9          24.7000     6.9840   -14.1820 N.pl3        1 ANP705   0.0000
    23 C8          23.5670     6.2680   -14.2900 C.2          1 ANP705   0.0000
    24 N7          23.8260     4.9780   -14.5570 N.2          1 ANP705   0.0000
    25 C5          25.1660     4.8790   -14.5780 C.ar         1 ANP705   0.0000
    26 C6          26.0460     3.8280   -14.7790 C.ar         1 ANP705   0.0000
    27 N6          25.6700     2.5660   -15.0220 N.pl3        1 ANP705   0.0000
    28 N1          27.3960     4.1080   -14.7370 N.ar         1 ANP705   0.0000
    29 C2          27.8870     5.3840   -14.5000 C.ar         1 ANP705   0.0000
    30 N3          27.0310     6.3700   -14.3190 N.ar         1 ANP705   0.0000
    31 C4          25.7020     6.1520   -14.3380 C.ar         1 ANP705   0.0000
    32 H3B         18.0746    10.5237   -14.9662 H            1 ANP705   0.0000
    33 H5'1        21.4647     9.4942   -12.0875 H            1 ANP705   0.0000
    34 H5'2        20.8787    10.1338   -13.4711 H            1 ANP705   0.0000
    35 H4'         23.1655    10.7087   -13.2481 H            1 ANP705   0.0000
    36 H3'         22.6020     8.9412   -15.4646 H            1 ANP705   0.0000
    37 H6          23.5281    10.9932   -16.5225 H            1 ANP705   0.0000
    38 H2'         24.8617     8.8013   -15.9730 H            1 ANP705   0.0000
    39 H8          25.2267    11.1118   -15.8243 H            1 ANP705   0.0000
    40 H1'         25.7616     8.6080   -13.5270 H            1 ANP705   0.0000
    41 H10         22.6481     6.6481   -14.1848 H            1 ANP705   0.0000
    42 H11         26.3608     1.8558   -15.1577 H            1 ANP705   0.0000
    43 H12         24.6984     2.3338   -15.0678 H            1 ANP705   0.0000
    44 H13         28.8722     5.5525   -14.4671 H            1 ANP705   0.0000
@<TRIPOS>BOND
     1    1    2      ar
     2    1    3      ar
     3    1    4      ar
     4    1    8       1
     5    5    6      ar
     6    5    7      ar
     7    5    8       1
     8    5   12       1
     9    9   10      ar
    10    9   11      ar
    11    9   12       1
    12    9   13       1
    13   13   14       1
    14   14   15       1
    15   15   16       1
    16   15   17       1
    17   16   21       1
    18   17   18       1
    19   17   19       1
    20   19   20       1
    21   19   21       1
    22   21   22       1
    23   22   23       1
    24   22   31       1
    25   23   24       2
    26   24   25       1
    27   25   26      ar
    28   25   31      ar
    29   26   27       1
    30   26   28      ar
    31   28   29      ar
    32   29   30      ar
    33   30   31      ar
    34   29   44       1
    35   27   43       1
    36   27   42       1
    37    8   32       1
    38   23   41       1
    39   14   33       1
    40   14   34       1
    41   15   35       1
    42   17   36       1
    43   18   37       1
    44   19   38       1
    45   20   39       1
    46   21   40       1
@<TRIPOS>SUBSTRUCTURE
     1 ANP705      1 GROUP             4 B     ANP     0 **** ANP B 705
