@<TRIPOS>MOLECULE
4ceb_ZSV_2_ligand
   75    78     1     0     0
SMALL
NO_CHARGES


@<TRIPOS>ATOM
     1 C1          11.6180     5.6440    19.4770 C.ar         1 ZSV1216   0.0000
     2 C2          12.7210     6.0930    18.7800 C.ar         1 ZSV1216   0.0000
     3 C3          10.5740     5.0210    18.8100 C.ar         1 ZSV1216   0.0000
     4 C4          12.7870     5.9150    17.4110 C.ar         1 ZSV1216   0.0000
     5 C5           9.4900     7.7780    12.2530 C.ar         1 ZSV1216   0.0000
     6 C6           6.9180     4.4980    13.9800 C.ar         1 ZSV1216   0.0000
     7 C7           6.4850     6.4040    15.3350 C.ar         1 ZSV1216   0.0000
     8 C8           9.4600     8.7580    11.2760 C.ar         1 ZSV1216   0.0000
     9 C9           6.6730     5.2530    12.8560 C.ar         1 ZSV1216   0.0000
    10 C10          6.2460     7.1760    14.2090 C.ar         1 ZSV1216   0.0000
    11 C11         10.6510     4.8480    17.4390 C.ar         1 ZSV1216   0.0000
    12 C12         10.7960     9.2230    13.6540 C.ar         1 ZSV1216   0.0000
    13 C13          6.8300     5.0690    15.2300 C.ar         1 ZSV1216   0.0000
    14 C14         11.7530     5.2970    16.7370 C.ar         1 ZSV1216   0.0000
    15 C15         10.1530     8.0080    13.4470 C.ar         1 ZSV1216   0.0000
    16 C16         10.1060     9.9560    11.4710 C.ar         1 ZSV1216   0.0000
    17 C17         10.7600    10.2020    12.6660 C.ar         1 ZSV1216   0.0000
    18 C18          6.3350     6.5850    12.9650 C.ar         1 ZSV1216   0.0000
    19 C19         12.4610     4.0870    11.8550 C.2          1 ZSV1216   0.0000
    20 C20         11.7590     5.1550    12.2470 C.2          1 ZSV1216   0.0000
    21 C21          9.5250     4.1850    16.7580 C.2          1 ZSV1216   0.0000
    22 C22         11.4800     9.5130    14.9560 C.2          1 ZSV1216   0.0000
    23 C23         12.2660    12.0550     7.6730 C.2          1 ZSV1216   0.0000
    24 C24         11.1700    12.4060    11.9130 C.3          1 ZSV1216   0.0000
    25 C25         11.1380    11.8070    10.5330 C.3          1 ZSV1216   0.0000
    26 C26          5.4880     8.5350    11.9670 C.3          1 ZSV1216   0.0000
    27 C27          7.0890     4.2320    16.4510 C.3          1 ZSV1216   0.0000
    28 C28         11.8590     5.1210    15.2610 C.3          1 ZSV1216   0.0000
    29 C29         10.1760     6.9020    14.4600 C.3          1 ZSV1216   0.0000
    30 C30         12.3090     6.2190    13.1400 C.3          1 ZSV1216   0.0000
    31 C31         10.8560    12.4350     8.1000 C.3          1 ZSV1216   0.0000
    32 C32         10.9600    12.9310     9.5300 C.3          1 ZSV1216   0.0000
    33 N33          8.2920     4.6440    17.1270 N.am         1 ZSV1216   0.0000
    34 N34         11.6060     6.3600    14.4650 N.4          1 ZSV1216   1.0000
    35 O35         11.2290    10.6670    15.4180 O.co2        1 ZSV1216   0.0000
    36 O36         13.2120    12.8130     8.0330 O.co2        1 ZSV1216   0.0000
    37 O37          9.7120     3.2960    15.9410 O.2          1 ZSV1216   0.0000
    38 O38         12.1240     8.6260    15.5700 O.co2        1 ZSV1216  -1.0000
    39 O39         12.3300    11.0010     6.9790 O.co2        1 ZSV1216  -1.0000
    40 O40         11.4400    11.4020    12.8900 O.3          1 ZSV1216   0.0000
    41 O41         10.0440    10.8860    10.4460 O.3          1 ZSV1216   0.0000
    42 O42          6.1250     7.2700    11.7730 O.3          1 ZSV1216   0.0000
    43 H1          11.5713     5.7685    20.4681 H            1 ZSV1216   0.0000
    44 H2          13.4701     6.5456    19.2638 H            1 ZSV1216   0.0000
    45 H3           9.7729     4.6997    19.3149 H            1 ZSV1216   0.0000
    46 H4          13.5883     6.2357    16.9060 H            1 ZSV1216   0.0000
    47 H5           9.0324     6.9027    12.0965 H            1 ZSV1216   0.0000
    48 H6           7.1606     3.5322    13.8889 H            1 ZSV1216   0.0000
    49 H7           6.4064     6.8204    16.2408 H            1 ZSV1216   0.0000
    50 H8           8.9652     8.5936    10.4227 H            1 ZSV1216   0.0000
    51 H9           6.7408     4.8315    11.9517 H            1 ZSV1216   0.0000
    52 H10          6.0131     8.1446    14.2965 H            1 ZSV1216   0.0000
    53 H11         12.0413     3.4052    11.2558 H            1 ZSV1216   0.0000
    54 H12         13.4058     3.9698    12.1610 H            1 ZSV1216   0.0000
    55 H13         10.8165     5.2465    11.9257 H            1 ZSV1216   0.0000
    56 H14         10.2840    12.8261    12.1096 H            1 ZSV1216   0.0000
    57 H15         11.8856    13.1034    11.9520 H            1 ZSV1216   0.0000
    58 H16         11.9972    11.3278    10.3534 H            1 ZSV1216   0.0000
    59 H17          5.3613     8.9836    11.0823 H            1 ZSV1216   0.0000
    60 H18          4.5978     8.3969    12.4012 H            1 ZSV1216   0.0000
    61 H19          6.0593     9.1095    12.5532 H            1 ZSV1216   0.0000
    62 H20          7.1824     3.2753    16.1754 H            1 ZSV1216   0.0000
    63 H21          6.3157     4.3242    17.0784 H            1 ZSV1216   0.0000
    64 H22         11.1931     4.4295    14.9811 H            1 ZSV1216   0.0000
    65 H23         12.7822     4.7990    15.0512 H            1 ZSV1216   0.0000
    66 H24          9.5327     6.1813    14.2015 H            1 ZSV1216   0.0000
    67 H25          9.9355     7.2547    15.3643 H            1 ZSV1216   0.0000
    68 H26         12.2434     7.0932    12.6588 H            1 ZSV1216   0.0000
    69 H27         13.2700     6.0084    13.3190 H            1 ZSV1216   0.0000
    70 H28         10.2540    11.6379     8.0534 H            1 ZSV1216   0.0000
    71 H29         10.4985    13.1577     7.5085 H            1 ZSV1216   0.0000
    72 H30         11.7451    13.5466     9.5979 H            1 ZSV1216   0.0000
    73 H31         10.1239    13.4309     9.7560 H            1 ZSV1216   0.0000
    74 H32          8.2228     5.2862    17.8904 H            1 ZSV1216   0.0000
    75 H33         12.1300     7.0652    14.9426 H            1 ZSV1216   0.0000
@<TRIPOS>BOND
     1    1    2      ar
     2    1    3      ar
     3    2    4      ar
     4    3   11      ar
     5    4   14      ar
     6    5    8      ar
     7    5   15      ar
     8    6    9      ar
     9    6   13      ar
    10    7   10      ar
    11    7   13      ar
    12    8   16      ar
    13    9   18      ar
    14   10   18      ar
    15   11   14      ar
    16   11   21       1
    17   12   15      ar
    18   12   17      ar
    19   12   22       1
    20   13   27       1
    21   14   28       1
    22   15   29       1
    23   16   17      ar
    24   16   41       1
    25   17   40       1
    26   18   42       1
    27   19   20       2
    28   20   30       1
    29   21   33      am
    30   21   37       2
    31   22   35      ar
    32   22   38      ar
    33   23   31       1
    34   23   36      ar
    35   23   39      ar
    36   24   25       1
    37   24   40       1
    38   25   32       1
    39   25   41       1
    40   26   42       1
    41   27   33       1
    42   28   34       1
    43   29   34       1
    44   30   34       1
    45   31   32       1
    46    1   43       1
    47    2   44       1
    48    3   45       1
    49    4   46       1
    50    5   47       1
    51    6   48       1
    52    7   49       1
    53    8   50       1
    54    9   51       1
    55   10   52       1
    56   19   53       1
    57   19   54       1
    58   20   55       1
    59   24   56       1
    60   24   57       1
    61   25   58       1
    62   26   59       1
    63   26   60       1
    64   26   61       1
    65   27   62       1
    66   27   63       1
    67   28   64       1
    68   28   65       1
    69   29   66       1
    70   29   67       1
    71   30   68       1
    72   30   69       1
    73   31   70       1
    74   31   71       1
    75   32   72       1
    76   32   73       1
    77   33   74       1
    78   34   75       1
@<TRIPOS>SUBSTRUCTURE
     1 ZSV1216     1 GROUP             4 B     ZSV     0 **** ZSV B1216
