@<TRIPOS>MOLECULE
1kc1_NDP_1_ligand
   73    77     1     0     0
SMALL
NO_CHARGES


@<TRIPOS>ATOM
     1 PA           8.5690   -14.0910    15.4410 P.3          1 NDP901   0.0000
     2 O1A          9.2960   -15.0820    14.5300 O.co2        1 NDP901   0.0000
     3 O2A          7.9670   -12.9180    14.7780 O.co2        1 NDP901  -1.0000
     4 O5B          9.7020   -13.6070    16.4790 O.3          1 NDP901   0.0000
     5 C5B         10.8290   -14.2850    17.0010 C.3          1 NDP901   0.0000
     6 C4B         12.1430   -13.4800    16.8580 C.3          1 NDP901   0.0000
     7 O4B         13.3240   -14.3010    17.0000 O.3          1 NDP901   0.0000
     8 C3B         12.3140   -12.7760    15.5140 C.3          1 NDP901   0.0000
     9 O3B         12.8910   -11.4980    15.6180 O.3          1 NDP901   0.0000
    10 C2B         13.4030   -13.5840    14.9100 C.3          1 NDP901   0.0000
    11 O2B         13.8430   -12.9130    13.7260 O.3          1 NDP901   0.0000
    12 C1B         14.2610   -13.6660    16.0840 C.3          1 NDP901   0.0000
    13 N9A         15.3170   -14.5220    15.7880 N.pl3        1 NDP901   0.0000
    14 C8A         15.4120   -15.4990    14.8240 C.2          1 NDP901   0.0000
    15 N7A         16.6110   -16.0640    14.9160 N.2          1 NDP901   0.0000
    16 C5A         17.2430   -15.4590    15.9130 C.ar         1 NDP901   0.0000
    17 C6A         18.5120   -15.6560    16.4310 C.ar         1 NDP901   0.0000
    18 N6A         19.4040   -16.5900    15.9460 N.pl3        1 NDP901   0.0000
    19 N1A         18.9080   -14.8680    17.5040 N.ar         1 NDP901   0.0000
    20 C2A         18.0490   -13.9170    18.0110 C.ar         1 NDP901   0.0000
    21 N3A         16.7870   -13.7170    17.4930 N.ar         1 NDP901   0.0000
    22 C4A         16.4290   -14.4930    16.4680 C.ar         1 NDP901   0.0000
    23 O3           7.5100   -14.7990    16.3240 O.3          1 NDP901   0.0000
    24 PN           6.5910   -14.0070    17.3460 P.3          1 NDP901   0.0000
    25 O1N          7.0770   -12.6170    17.7200 O.co2        1 NDP901   0.0000
    26 O2N          5.1530   -14.1540    16.9120 O.co2        1 NDP901  -1.0000
    27 O5D          6.6290   -14.9890    18.6090 O.3          1 NDP901   0.0000
    28 C5D          7.4000   -14.5590    19.7560 C.3          1 NDP901   0.0000
    29 C4D          7.1710   -15.2450    21.0930 C.3          1 NDP901   0.0000
    30 O4D          5.8190   -15.6530    21.1460 O.3          1 NDP901   0.0000
    31 C3D          8.0080   -16.4930    21.3250 C.3          1 NDP901   0.0000
    32 O3D          7.9800   -17.0170    22.6120 O.3          1 NDP901   0.0000
    33 C2D          7.1220   -17.3760    20.5960 C.3          1 NDP901   0.0000
    34 O2D          7.3630   -18.7270    20.6760 O.3          1 NDP901   0.0000
    35 C1D          5.8470   -17.0040    21.2320 C.3          1 NDP901   0.0000
    36 N1N          4.8350   -17.6400    20.3460 N.ar         1 NDP901   1.0000
    37 C2N          4.5470   -17.4370    18.9140 C.ar         1 NDP901   0.0000
    38 C3N          3.5830   -18.1180    18.1550 C.ar         1 NDP901   0.0000
    39 C7N          3.2040   -18.0170    16.6880 C.2          1 NDP901   0.0000
    40 O7N          2.2500   -18.6830    16.2440 O.2          1 NDP901   0.0000
    41 N7N          3.9090   -17.2640    15.7960 N.am         1 NDP901   0.0000
    42 C4N          2.7190   -19.1880    18.8030 C.ar         1 NDP901   0.0000
    43 C5N          3.0460   -19.4260    20.2710 C.ar         1 NDP901   0.0000
    44 C6N          4.0130   -18.6260    20.7630 C.ar         1 NDP901   0.0000
    45 P2B         13.7640   -13.4450    12.1650 P.3          1 NDP901   0.0000
    46 O1X         13.8640   -12.1860    11.3170 O.co2        1 NDP901   0.0000
    47 O2X         12.4210   -14.1500    11.9620 O.co2        1 NDP901  -1.0000
    48 O3X         14.9670   -14.3740    12.0690 O.co2        1 NDP901  -1.0000
    49 H5B1        10.9325   -15.1520    16.5136 H            1 NDP901   0.0000
    50 H5B2        10.6704   -14.4651    17.9718 H            1 NDP901   0.0000
    51 H4B         12.1605   -12.7848    17.5766 H            1 NDP901   0.0000
    52 H3B         11.4781   -12.7803    14.9651 H            1 NDP901   0.0000
    53 H5          13.7441   -11.4740    15.0968 H            1 NDP901   0.0000
    54 H2B         13.0603   -14.4939    14.6764 H            1 NDP901   0.0000
    55 H1B         14.5672   -12.7692    16.4033 H            1 NDP901   0.0000
    56 H8A         14.6996   -15.7425    14.1658 H            1 NDP901   0.0000
    57 H6A1        20.3073   -16.6833    16.3648 H            1 NDP901   0.0000
    58 H6A2        19.1473   -17.1737    15.1757 H            1 NDP901   0.0000
    59 H2A         18.3510   -13.3534    18.7799 H            1 NDP901   0.0000
    60 H5D1         7.2108   -13.5861    19.8890 H            1 NDP901   0.0000
    61 H5D2         8.3649   -14.6823    19.5242 H            1 NDP901   0.0000
    62 H4D          7.3452   -14.5921    21.8302 H            1 NDP901   0.0000
    63 H3D          8.9272   -16.4369    20.9353 H            1 NDP901   0.0000
    64 H16          8.7107   -16.6044    23.1559 H            1 NDP901   0.0000
    65 H2D          7.1023   -17.1018    19.6345 H            1 NDP901   0.0000
    66 H18          7.9855   -18.9986    19.9420 H            1 NDP901   0.0000
    67 H1D          5.7836   -17.3271    22.1762 H            1 NDP901   0.0000
    68 H2N          5.0917   -16.7469    18.4375 H            1 NDP901   0.0000
    69 H7N1         3.6238   -17.2260    14.8383 H            1 NDP901   0.0000
    70 H7N2         4.7112   -16.7498    16.0996 H            1 NDP901   0.0000
    71 H4N          2.0048   -19.6873    18.3125 H            1 NDP901   0.0000
    72 H5N          2.5821   -20.1181    20.8240 H            1 NDP901   0.0000
    73 H6N          4.1686   -18.8229    21.7310 H            1 NDP901   0.0000
@<TRIPOS>BOND
     1    1    2      ar
     2    1    3      ar
     3    1    4       1
     4    1   23       1
     5    4    5       1
     6    5    6       1
     7    6    7       1
     8    6    8       1
     9    7   12       1
    10    8    9       1
    11    8   10       1
    12   10   11       1
    13   10   12       1
    14   11   45       1
    15   12   13       1
    16   13   14       1
    17   13   22       1
    18   14   15       2
    19   15   16       1
    20   16   17      ar
    21   16   22      ar
    22   17   18       1
    23   17   19      ar
    24   19   20      ar
    25   20   21      ar
    26   21   22      ar
    27   23   24       1
    28   24   25      ar
    29   24   26      ar
    30   24   27       1
    31   27   28       1
    32   28   29       1
    33   29   30       1
    34   29   31       1
    35   30   35       1
    36   31   32       1
    37   31   33       1
    38   33   34       1
    39   33   35       1
    40   35   36       1
    41   36   37      ar
    42   36   44      ar
    43   37   38      ar
    44   38   39       1
    45   38   42      ar
    46   39   40       2
    47   39   41      am
    48   42   43      ar
    49   43   44      ar
    50   45   46      ar
    51   45   47      ar
    52   45   48      ar
    53   43   72       1
    54    5   49       1
    55    5   50       1
    56    6   51       1
    57    8   52       1
    58    9   53       1
    59   10   54       1
    60   12   55       1
    61   14   56       1
    62   18   57       1
    63   18   58       1
    64   20   59       1
    65   44   73       1
    66   28   60       1
    67   28   61       1
    68   29   62       1
    69   31   63       1
    70   32   64       1
    71   33   65       1
    72   34   66       1
    73   35   67       1
    74   37   68       1
    75   41   69       1
    76   41   70       1
    77   42   71       1
@<TRIPOS>SUBSTRUCTURE
     1 NDP901      1 GROUP             4 A     NDP     0 **** NDP A 901
