@<TRIPOS>MOLECULE
1j39_UPG_1_ligand
   58    60     1     0     0
SMALL
NO_CHARGES


@<TRIPOS>ATOM
     1 N1          59.9600    16.8310     9.4960 N.pl3        1 UPG400   0.0000
     2 C2          61.2980    17.0800     9.2420 C.2          1 UPG400   0.0000
     3 N3          61.7450    16.6650     8.0160 N.pl3        1 UPG400   0.0000
     4 C4          61.0050    16.0450     7.0300 C.2          1 UPG400   0.0000
     5 C5          59.6260    15.8280     7.3620 C.2          1 UPG400   0.0000
     6 C6          59.1630    16.2170     8.5580 C.2          1 UPG400   0.0000
     7 O2          62.0330    17.6320    10.0510 O.2          1 UPG400   0.0000
     8 O4          61.5540    15.7320     5.9720 O.2          1 UPG400   0.0000
     9 C1C         59.4470    17.2640    10.8030 C.3          1 UPG400   0.0000
    10 C2C         58.4610    18.4370    10.7680 C.3          1 UPG400   0.0000
    11 O2C         58.9300    19.4250    11.6590 O.3          1 UPG400   0.0000
    12 C3C         57.1660    17.7880    11.2670 C.3          1 UPG400   0.0000
    13 C4C         57.7000    16.7400    12.2240 C.3          1 UPG400   0.0000
    14 O4C         58.7970    16.1900    11.4560 O.3          1 UPG400   0.0000
    15 O3C         56.3670    18.7450    11.9530 O.3          1 UPG400   0.0000
    16 C5C         56.7660    15.6560    12.7200 C.3          1 UPG400   0.0000
    17 O5C         56.0960    15.0280    11.6400 O.3          1 UPG400   0.0000
    18 PA          55.5360    13.5420    11.7900 P.3          1 UPG400   0.0000
    19 O1A         54.6420    13.2650    10.6400 O.co2        1 UPG400   0.0000
    20 O2A         56.6890    12.6470    12.0550 O.co2        1 UPG400  -1.0000
    21 O3A         54.6590    13.5780    13.1640 O.3          1 UPG400   0.0000
    22 PB          53.4470    14.5640    13.6280 P.3          1 UPG400   0.0000
    23 O1B         52.4370    13.7380    14.3350 O.co2        1 UPG400   0.0000
    24 O2B         53.0240    15.4190    12.4910 O.co2        1 UPG400  -1.0000
    25 O3B         54.1730    15.4850    14.7060 O.3          1 UPG400   0.0000
    26 C1'         54.7530    15.0090    15.9280 C.3          1 UPG400   0.0000
    27 C2'         53.7960    15.0730    17.1140 C.3          1 UPG400   0.0000
    28 C3'         53.3750    16.5340    17.2880 C.3          1 UPG400   0.0000
    29 C4'         54.6090    17.4220    17.4880 C.3          1 UPG400   0.0000
    30 C5'         55.6150    17.2060    16.3440 C.3          1 UPG400   0.0000
    31 C6'         56.9330    17.9030    16.6130 C.3          1 UPG400   0.0000
    32 O2'         52.6640    14.2620    16.8560 O.3          1 UPG400   0.0000
    33 O3'         52.4830    16.6740    18.3850 O.3          1 UPG400   0.0000
    34 O4'         54.2120    18.7830    17.5170 O.3          1 UPG400   0.0000
    35 O5'         55.9170    15.8010    16.1940 O.3          1 UPG400   0.0000
    36 O6'         57.6610    17.2290    17.6280 O.3          1 UPG400   0.0000
    37 H1          62.7105    16.8287     7.8137 H            1 UPG400   0.0000
    38 H2          59.0137    15.3889     6.7045 H            1 UPG400   0.0000
    39 H3          58.2009    16.0546     8.7770 H            1 UPG400   0.0000
    40 H1C         60.2284    17.5366    11.3643 H            1 UPG400   0.0000
    41 H2C         58.3557    18.7993     9.8419 H            1 UPG400   0.0000
    42 H6          58.6484    20.3278    11.3339 H            1 UPG400   0.0000
    43 H3C         56.6595    17.3664    10.5148 H            1 UPG400   0.0000
    44 H4C         58.0817    17.2103    13.0196 H            1 UPG400   0.0000
    45 H9          56.1383    19.4948    11.3321 H            1 UPG400   0.0000
    46 H5C1        56.0885    16.0634    13.3324 H            1 UPG400   0.0000
    47 H5C2        57.2965    14.9704    13.2186 H            1 UPG400   0.0000
    48 H1'         55.0365    14.0589    15.7977 H            1 UPG400   0.0000
    49 H2'         54.2597    14.7538    17.9405 H            1 UPG400   0.0000
    50 H3'         52.9037    16.8290    16.4568 H            1 UPG400   0.0000
    51 H4'         55.0447    17.1882    18.3572 H            1 UPG400   0.0000
    52 H5'         55.2253    17.5533    15.4911 H            1 UPG400   0.0000
    53 H6'1        56.7535    18.8419    16.9066 H            1 UPG400   0.0000
    54 H6'2        57.4754    17.9144    15.7730 H            1 UPG400   0.0000
    55 H19         52.7569    13.8366    15.9558 H            1 UPG400   0.0000
    56 H20         52.9341    16.3663    19.2228 H            1 UPG400   0.0000
    57 H21         54.8397    19.3010    18.0981 H            1 UPG400   0.0000
    58 H6'         57.8179    17.8514    18.3948 H            1 UPG400   0.0000
@<TRIPOS>BOND
     1    1    2       1
     2    1    6       1
     3    1    9       1
     4    2    3       1
     5    2    7       2
     6    3    4       1
     7    4    5       1
     8    4    8       2
     9    5    6       2
    10    9   10       1
    11    9   14       1
    12   10   11       1
    13   10   12       1
    14   12   13       1
    15   12   15       1
    16   13   14       1
    17   13   16       1
    18   16   17       1
    19   17   18       1
    20   18   19      ar
    21   18   20      ar
    22   18   21       1
    23   21   22       1
    24   22   23      ar
    25   22   24      ar
    26   22   25       1
    27   25   26       1
    28   26   27       1
    29   26   35       1
    30   27   28       1
    31   27   32       1
    32   28   29       1
    33   28   33       1
    34   29   30       1
    35   29   34       1
    36   30   31       1
    37   30   35       1
    38   31   36       1
    39    3   37       1
    40    5   38       1
    41    6   39       1
    42    9   40       1
    43   10   41       1
    44   11   42       1
    45   12   43       1
    46   13   44       1
    47   15   45       1
    48   16   46       1
    49   16   47       1
    50   36   58       1
    51   34   57       1
    52   26   48       1
    53   27   49       1
    54   28   50       1
    55   29   51       1
    56   30   52       1
    57   31   53       1
    58   31   54       1
    59   32   55       1
    60   33   56       1
@<TRIPOS>SUBSTRUCTURE
     1 UPG400      1 GROUP             4 A     UPG     0 **** UPG A 400
