@<TRIPOS>MOLECULE
2gqf_FAD_1_ligand
   84    89     1     0     0
SMALL
NO_CHARGES


@<TRIPOS>ATOM
     1 PA          56.1670    76.6510     5.0190 P.3          1 FAD403   0.0000
     2 O1A         55.2960    75.5060     5.4000 O.co2        1 FAD403   0.0000
     3 O2A         57.6330    76.6060     5.2480 O.co2        1 FAD403  -1.0000
     4 O5B         55.6520    77.9340     5.8110 O.3          1 FAD403   0.0000
     5 C5B         54.3920    78.5350     5.5150 C.3          1 FAD403   0.0000
     6 C4B         53.7600    79.0580     6.7820 C.3          1 FAD403   0.0000
     7 O4B         52.4850    79.6410     6.4570 O.3          1 FAD403   0.0000
     8 C3B         53.4170    77.9450     7.7640 C.3          1 FAD403   0.0000
     9 O3B         54.3750    77.9890     8.8190 O.3          1 FAD403   0.0000
    10 C2B         52.0520    78.3270     8.3450 C.3          1 FAD403   0.0000
    11 O2B         52.0570    78.4490     9.7480 O.3          1 FAD403   0.0000
    12 C1B         51.7150    79.6330     7.6240 C.3          1 FAD403   0.0000
    13 N9A         50.3030    79.7790     7.2860 N.pl3        1 FAD403   0.0000
    14 C8A         49.4770    78.8590     6.6930 C.2          1 FAD403   0.0000
    15 N7A         48.2200    79.2240     6.6520 N.2          1 FAD403   0.0000
    16 C5A         48.2180    80.4760     7.2510 C.ar         1 FAD403   0.0000
    17 C6A         47.1850    81.3920     7.5340 C.ar         1 FAD403   0.0000
    18 N6A         45.8960    81.1600     7.2600 N.pl3        1 FAD403   0.0000
    19 N1A         47.5250    82.5640     8.1260 N.ar         1 FAD403   0.0000
    20 C2A         48.8180    82.7820     8.4250 C.ar         1 FAD403   0.0000
    21 N3A         49.8730    81.9900     8.2240 N.ar         1 FAD403   0.0000
    22 C4A         49.5000    80.8400     7.6280 C.ar         1 FAD403   0.0000
    23 N1          62.6260    70.5610     2.0680 N.2          1 FAD403   0.0000
    24 C2          63.8940    70.5980     1.6690 C.2          1 FAD403   0.0000
    25 O2          64.2800    71.2090     0.6750 O.2          1 FAD403   0.0000
    26 N3          64.7050    69.8890     2.4530 N.pl3        1 FAD403   0.0000
    27 C4          64.4080    69.1750     3.5400 C.2          1 FAD403   0.0000
    28 O4          65.2690    68.5840     4.1840 O.2          1 FAD403   0.0000
    29 C4X         63.0860    69.1330     3.9430 C.2          1 FAD403   0.0000
    30 N5          62.6300    68.4110     5.0500 N.2          1 FAD403   0.0000
    31 C5X         61.2890    68.3550     5.4650 C.ar         1 FAD403   0.0000
    32 C6          60.9270    67.5680     6.6110 C.ar         1 FAD403   0.0000
    33 C7          59.5420    67.5420     6.9880 C.ar         1 FAD403   0.0000
    34 C7M         59.1060    66.7250     8.1630 C.3          1 FAD403   0.0000
    35 C8          58.5710    68.3100     6.2070 C.ar         1 FAD403   0.0000
    36 C8M         57.1380    68.2720     6.6320 C.3          1 FAD403   0.0000
    37 C9          58.9760    69.0290     5.1400 C.ar         1 FAD403   0.0000
    38 C9A         60.2590    69.0990     4.7190 C.ar         1 FAD403   0.0000
    39 N10         60.8230    69.7860     3.6300 N.pl3        1 FAD403   0.0000
    40 C10         62.1380    69.8730     3.1650 C.2          1 FAD403   0.0000
    41 C1'         59.8590    70.5760     2.8490 C.3          1 FAD403   0.0000
    42 C2'         59.8750    72.0680     3.0970 C.3          1 FAD403   0.0000
    43 O2'         59.6400    72.2720     4.4820 O.3          1 FAD403   0.0000
    44 C3'         58.9420    72.9600     2.2820 C.3          1 FAD403   0.0000
    45 O3'         58.9790    72.5830     0.9120 O.3          1 FAD403   0.0000
    46 C4'         59.1230    74.4780     2.4220 C.3          1 FAD403   0.0000
    47 O4'         59.1240    74.8410     3.7960 O.3          1 FAD403   0.0000
    48 C5'         58.0640    75.2760     1.7790 C.3          1 FAD403   0.0000
    49 O5'         58.1790    76.6580     2.1150 O.3          1 FAD403   0.0000
    50 P           56.8790    77.5700     2.2550 P.3          1 FAD403   0.0000
    51 O1P         57.2640    78.9160     2.7470 O.co2        1 FAD403   0.0000
    52 O2P         56.0310    77.4310     1.0420 O.co2        1 FAD403  -1.0000
    53 O3P         55.9620    76.9420     3.4370 O.3          1 FAD403   0.0000
    54 H5B1        53.7889    77.8532     5.1009 H            1 FAD403   0.0000
    55 H5B2        54.5280    79.2919     4.8758 H            1 FAD403   0.0000
    56 H4B         54.3542    79.7357     7.2152 H            1 FAD403   0.0000
    57 H3B         53.3946    77.0498     7.3188 H            1 FAD403   0.0000
    58 H5          54.3309    78.8792     9.2724 H            1 FAD403   0.0000
    59 H2B         51.3830    77.6313     8.0833 H            1 FAD403   0.0000
    60 H7          51.1417    78.6987    10.0641 H            1 FAD403   0.0000
    61 H1B         51.9916    80.4021     8.2002 H            1 FAD403   0.0000
    62 H8A         49.8046    77.9887     6.3254 H            1 FAD403   0.0000
    63 H6A1        45.2056    81.8480     7.4837 H            1 FAD403   0.0000
    64 H6A2        45.6231    80.2986     6.8315 H            1 FAD403   0.0000
    65 H2A         49.0167    83.6608     8.8588 H            1 FAD403   0.0000
    66 H13         65.6699    69.8926     2.1903 H            1 FAD403   0.0000
    67 H14         61.6144    67.0571     7.1271 H            1 FAD403   0.0000
    68 H7M1        58.1180    66.8184     8.2857 H            1 FAD403   0.0000
    69 H7M2        59.3327    65.7642     8.0035 H            1 FAD403   0.0000
    70 H7M3        59.5759    67.0463     8.9852 H            1 FAD403   0.0000
    71 H8M1        56.5918    68.8370     6.0136 H            1 FAD403   0.0000
    72 H8M2        56.8064    67.3290     6.6024 H            1 FAD403   0.0000
    73 H8M3        57.0574    68.6245     7.5643 H            1 FAD403   0.0000
    74 H21         58.2855    69.5413     4.6294 H            1 FAD403   0.0000
    75 H1'1        58.9420    70.2394     3.0629 H            1 FAD403   0.0000
    76 H1'2        60.0521    70.4242     1.8796 H            1 FAD403   0.0000
    77 H2'         60.8068    72.3810     2.9133 H            1 FAD403   0.0000
    78 H25         59.1724    73.1458     4.6156 H            1 FAD403   0.0000
    79 H3'         58.0158    72.7594     2.6011 H            1 FAD403   0.0000
    80 H27         58.2801    71.8892     0.7382 H            1 FAD403   0.0000
    81 H4'         60.0035    74.7336     2.0227 H            1 FAD403   0.0000
    82 H29         58.3732    75.4773     3.9732 H            1 FAD403   0.0000
    83 H5'1        57.1727    74.9399     2.0835 H            1 FAD403   0.0000
    84 H5'2        58.1371    75.1749     0.7868 H            1 FAD403   0.0000
@<TRIPOS>BOND
     1    1    2      ar
     2    1    3      ar
     3    1    4       1
     4    1   53       1
     5    4    5       1
     6    5    6       1
     7    6    7       1
     8    6    8       1
     9    7   12       1
    10    8    9       1
    11    8   10       1
    12   10   11       1
    13   10   12       1
    14   12   13       1
    15   13   14       1
    16   13   22       1
    17   14   15       2
    18   15   16       1
    19   16   17      ar
    20   16   22      ar
    21   17   18       1
    22   17   19      ar
    23   19   20      ar
    24   20   21      ar
    25   21   22      ar
    26   23   24       1
    27   23   40       2
    28   24   25       2
    29   24   26       1
    30   26   27       1
    31   27   28       2
    32   27   29       1
    33   29   30       2
    34   29   40       1
    35   30   31       1
    36   31   32      ar
    37   31   38      ar
    38   32   33      ar
    39   33   34       1
    40   33   35      ar
    41   35   36       1
    42   35   37      ar
    43   37   38      ar
    44   38   39       1
    45   39   40       1
    46   39   41       1
    47   41   42       1
    48   42   43       1
    49   42   44       1
    50   44   45       1
    51   44   46       1
    52   46   47       1
    53   46   48       1
    54   48   49       1
    55   49   50       1
    56   50   51      ar
    57   50   52      ar
    58   50   53       1
    59   48   84       1
    60    5   54       1
    61    5   55       1
    62    6   56       1
    63    8   57       1
    64    9   58       1
    65   10   59       1
    66   11   60       1
    67   12   61       1
    68   14   62       1
    69   18   63       1
    70   18   64       1
    71   20   65       1
    72   26   66       1
    73   32   67       1
    74   34   68       1
    75   34   69       1
    76   34   70       1
    77   36   71       1
    78   36   72       1
    79   36   73       1
    80   37   74       1
    81   41   75       1
    82   41   76       1
    83   42   77       1
    84   43   78       1
    85   44   79       1
    86   45   80       1
    87   46   81       1
    88   47   82       1
    89   48   83       1
@<TRIPOS>SUBSTRUCTURE
     1 FAD403      1 GROUP             4 A     FAD     0 **** FAD A 403
