@<TRIPOS>MOLECULE
2cd2_FOL_1_ligand
   49    51     1     0     0
SMALL
NO_CHARGES


@<TRIPOS>ATOM
     1 N1          10.3440     3.0270    13.1130 N.2          1 FOL307   0.0000
     2 C2          10.5820     2.1120    12.1300 C.2          1 FOL307   0.0000
     3 NA2          9.6930     1.2650    11.7330 N.pl3        1 FOL307   0.0000
     4 N3          11.7900     2.0960    11.5310 N.pl3        1 FOL307   0.0000
     5 C4          12.7010     2.9700    11.8900 C.2          1 FOL307   0.0000
     6 O4          13.8600     2.8940    11.2970 O.2          1 FOL307   0.0000
     7 C4A         12.4750     3.9660    12.9320 C.ar         1 FOL307   0.0000
     8 N5          13.4260     4.8650    13.2690 N.ar         1 FOL307   0.0000
     9 C6          13.1210     5.7280    14.2060 C.ar         1 FOL307   0.0000
    10 C7          11.8820     5.6880    14.7960 C.ar         1 FOL307   0.0000
    11 N8          10.8990     4.8410    14.4800 N.ar         1 FOL307   0.0000
    12 C8A         11.2330     3.9450    13.5440 C.ar         1 FOL307   0.0000
    13 C9          14.2130     6.7130    14.6110 C.3          1 FOL307   0.0000
    14 N10         15.3610     6.8290    13.7360 N.pl3        1 FOL307   0.0000
    15 C11         15.2440     8.4190     9.7860 C.ar         1 FOL307   0.0000
    16 C12         16.3990     7.9220    10.3590 C.ar         1 FOL307   0.0000
    17 C13         16.4030     7.4090    11.6410 C.ar         1 FOL307   0.0000
    18 C14         15.2640     7.3800    12.4690 C.ar         1 FOL307   0.0000
    19 C15         14.1140     7.8980    11.8860 C.ar         1 FOL307   0.0000
    20 C16         14.1100     8.3920    10.5870 C.ar         1 FOL307   0.0000
    21 C           15.1760     8.9780     8.4080 C.2          1 FOL307   0.0000
    22 O           16.1890     9.4630     7.8400 O.2          1 FOL307   0.0000
    23 N           13.9710     8.9760     7.8060 N.am         1 FOL307   0.0000
    24 CA          13.5900     9.5980     6.5340 C.3          1 FOL307   0.0000
    25 CB          13.7050     8.6150     5.3540 C.3          1 FOL307   0.0000
    26 CG          15.1260     8.7040     4.7960 C.3          1 FOL307   0.0000
    27 CD          15.1050     8.0360     3.4750 C.2          1 FOL307   0.0000
    28 OE1         15.5320     6.8340     3.1760 O.co2        1 FOL307   0.0000
    29 OE2         14.5230     8.5340     2.3850 O.co2        1 FOL307  -1.0000
    30 CT          12.1820    10.1780     6.5740 C.2          1 FOL307   0.0000
    31 O1          11.3570     9.5050     7.2260 O.co2        1 FOL307   0.0000
    32 O2          12.0340    11.2480     5.9070 O.co2        1 FOL307  -1.0000
    33 HA21         9.9130     0.6120    11.0083 H            1 FOL307   0.0000
    34 HA22         8.7841     1.2617    12.1501 H            1 FOL307   0.0000
    35 H3          11.7002     6.3490    15.5240 H            1 FOL307   0.0000
    36 H4          14.5484     6.4360    15.5114 H            1 FOL307   0.0000
    37 H5          13.7922     7.6178    14.6759 H            1 FOL307   0.0000
    38 H6          16.2501     6.5016    14.0560 H            1 FOL307   0.0000
    39 H7          17.2501     7.9341     9.8341 H            1 FOL307   0.0000
    40 H8          17.2595     7.0386    12.0004 H            1 FOL307   0.0000
    41 H9          13.2660     7.9158    12.4156 H            1 FOL307   0.0000
    42 H10         13.2521     8.7437    10.2124 H            1 FOL307   0.0000
    43 H11         13.2434     8.4880     8.2881 H            1 FOL307   0.0000
    44 HA          14.2240    10.3523     6.3633 H            1 FOL307   0.0000
    45 HB1         13.0460     8.8607     4.6431 H            1 FOL307   0.0000
    46 HB2         13.5229     7.6839     5.6699 H            1 FOL307   0.0000
    47 HG1         15.7664     8.2392     5.4074 H            1 FOL307   0.0000
    48 HG2         15.3973     9.6611     4.6943 H            1 FOL307   0.0000
    49 H17         11.9902     1.4233    10.8187 H            1 FOL307   0.0000
@<TRIPOS>BOND
     1    1    2       2
     2    1   12       1
     3    2    3       1
     4    2    4       1
     5    4    5       1
     6    5    6       2
     7    5    7       1
     8    7    8      ar
     9    7   12      ar
    10    8    9      ar
    11    9   10      ar
    12    9   13       1
    13   10   11      ar
    14   11   12      ar
    15   13   14       1
    16   14   18       1
    17   15   16      ar
    18   15   20      ar
    19   15   21       1
    20   16   17      ar
    21   17   18      ar
    22   18   19      ar
    23   19   20      ar
    24   21   22       2
    25   21   23      am
    26   23   24       1
    27   24   25       1
    28   24   30       1
    29   25   26       1
    30   26   27       1
    31   27   28      ar
    32   27   29      ar
    33   30   31      ar
    34   30   32      ar
    35    4   49       1
    36    3   33       1
    37    3   34       1
    38   10   35       1
    39   13   36       1
    40   13   37       1
    41   14   38       1
    42   16   39       1
    43   17   40       1
    44   19   41       1
    45   20   42       1
    46   23   43       1
    47   24   44       1
    48   25   45       1
    49   25   46       1
    50   26   47       1
    51   26   48       1
@<TRIPOS>SUBSTRUCTURE
     1 FOL307      1 GROUP             4 A     FOL     0 **** FOL A 307
