@<TRIPOS>MOLECULE
4o4i_ACP_7_ligand
   45    47     1     0     0
SMALL
NO_CHARGES


@<TRIPOS>ATOM
     1 PG          10.4310    51.2750    93.1280 P.3          1 ACP500   0.0000
     2 O1G         11.0110    52.4240    92.3850 O.co2        1 ACP500   0.0000
     3 O2G          8.9030    51.6410    93.4990 O.co2        1 ACP500  -1.0000
     4 O3G         10.3740    49.9930    92.1720 O.co2        1 ACP500  -1.0000
     5 PB          10.5510    50.3090    96.0610 P.3          1 ACP500   0.0000
     6 O1B          9.1230    50.7040    96.0830 O.co2        1 ACP500   0.0000
     7 O2B         10.6560    48.7030    96.0450 O.co2        1 ACP500  -1.0000
     8 C3B         11.4460    50.9210    94.6020 C.3          1 ACP500   0.0000
     9 PA          10.4050    51.4980    98.5820 P.3          1 ACP500   0.0000
    10 O1A          9.4680    52.5320    98.0000 O.co2        1 ACP500   0.0000
    11 O2A         11.3660    51.9000    99.6750 O.co2        1 ACP500  -1.0000
    12 O3A         11.2800    50.8440    97.3950 O.3          1 ACP500   0.0000
    13 O5'          9.5380    50.2430    99.0950 O.3          1 ACP500   0.0000
    14 C5'         10.0400    49.4870   100.1930 C.3          1 ACP500   0.0000
    15 C4'          8.9350    49.1180   101.1740 C.3          1 ACP500   0.0000
    16 O4'          9.3620    49.4820   102.4860 O.3          1 ACP500   0.0000
    17 C3'          7.6250    49.8460   100.9230 C.3          1 ACP500   0.0000
    18 O3'          6.7000    48.9880   100.2510 O.3          1 ACP500   0.0000
    19 C2'          7.1070    50.2050   102.3000 C.3          1 ACP500   0.0000
    20 O2'          6.1270    49.2530   102.7190 O.3          1 ACP500   0.0000
    21 C1'          8.3000    50.0830   103.2260 C.3          1 ACP500   0.0000
    22 N9           8.7360    51.4350   103.6370 N.pl3        1 ACP500   0.0000
    23 C8           9.5480    52.2410   102.9270 C.2          1 ACP500   0.0000
    24 N7           9.7640    53.4160   103.5690 N.2          1 ACP500   0.0000
    25 C5           9.0730    53.3630   104.7180 C.ar         1 ACP500   0.0000
    26 C6           8.8670    54.2720   105.8620 C.ar         1 ACP500   0.0000
    27 N6           9.4550    55.4940   105.8980 N.pl3        1 ACP500   0.0000
    28 N1           8.0800    53.8230   106.8620 N.ar         1 ACP500   0.0000
    29 C2           7.4810    52.6140   106.8310 C.ar         1 ACP500   0.0000
    30 N3           7.6230    51.7390   105.8250 N.ar         1 ACP500   0.0000
    31 C4           8.3950    52.0560   104.7610 C.ar         1 ACP500   0.0000
    32 H3B1        11.9124    51.7665    94.8621 H            1 ACP500   0.0000
    33 H3B2        12.1238    50.2311    94.3477 H            1 ACP500   0.0000
    34 H5'1        10.7304    50.0295   100.6715 H            1 ACP500   0.0000
    35 H5'2        10.4579    48.6479    99.8448 H            1 ACP500   0.0000
    36 H4'          8.7773    48.1311   101.1391 H            1 ACP500   0.0000
    37 H3'          7.7849    50.6738   100.3852 H            1 ACP500   0.0000
    38 H7           6.4465    49.3937    99.3728 H            1 ACP500   0.0000
    39 H2'          6.7351    51.1332   102.3134 H            1 ACP500   0.0000
    40 H9           5.6522    48.8887   101.9178 H            1 ACP500   0.0000
    41 H1'          8.0700    49.5286   104.0258 H            1 ACP500   0.0000
    42 H11          9.9418    52.0034   102.0390 H            1 ACP500   0.0000
    43 H12          9.3052    56.0981   106.6807 H            1 ACP500   0.0000
    44 H13         10.0383    55.7907   105.1418 H            1 ACP500   0.0000
    45 H14          6.8984    52.3562   107.6018 H            1 ACP500   0.0000
@<TRIPOS>BOND
     1    1    2      ar
     2    1    3      ar
     3    1    4      ar
     4    1    8       1
     5    5    6      ar
     6    5    7      ar
     7    5    8       1
     8    5   12       1
     9    9   10      ar
    10    9   11      ar
    11    9   12       1
    12    9   13       1
    13   13   14       1
    14   14   15       1
    15   15   16       1
    16   15   17       1
    17   16   21       1
    18   17   18       1
    19   17   19       1
    20   19   20       1
    21   19   21       1
    22   21   22       1
    23   22   23       1
    24   22   31       1
    25   23   24       2
    26   24   25       1
    27   25   26      ar
    28   25   31      ar
    29   26   27       1
    30   26   28      ar
    31   28   29      ar
    32   29   30      ar
    33   30   31      ar
    34   29   45       1
    35   27   44       1
    36   27   43       1
    37    8   32       1
    38    8   33       1
    39   23   42       1
    40   14   34       1
    41   14   35       1
    42   15   36       1
    43   17   37       1
    44   18   38       1
    45   19   39       1
    46   20   40       1
    47   21   41       1
@<TRIPOS>SUBSTRUCTURE
     1 ACP500      1 GROUP             4 F     ACP     0 **** ACP F 500
