@<TRIPOS>MOLECULE
2qoq_ANP_1_ligand
   44    46     1     0     0
SMALL
NO_CHARGES


@<TRIPOS>ATOM
     1 PG          -9.0080     5.8040    60.3070 P.3          1 ANP948   0.0000
     2 O1G         -8.7670     6.1200    61.7660 O.co2        1 ANP948   0.0000
     3 O2G         -9.4790     4.3910    60.1050 O.co2        1 ANP948  -1.0000
     4 O3G         -7.8680     6.1950    59.3940 O.co2        1 ANP948  -1.0000
     5 PB         -10.1840     8.3680    59.0940 P.3          1 ANP948   0.0000
     6 O1B        -11.2950     9.2380    59.6200 O.co2        1 ANP948   0.0000
     7 O2B         -8.7700     8.8740    59.2790 O.co2        1 ANP948  -1.0000
     8 N3B        -10.3680     6.8100    59.8570 N.3          1 ANP948   0.0000
     9 PA          -9.4570     7.6690    56.4180 P.3          1 ANP948   0.0000
    10 O1A         -8.2110     7.1220    57.0630 O.co2        1 ANP948   0.0000
    11 O2A         -9.3090     8.7110    55.3350 O.co2        1 ANP948  -1.0000
    12 O3A        -10.4910     8.2390    57.5160 O.3          1 ANP948   0.0000
    13 O5'        -10.2810     6.4250    55.8110 O.3          1 ANP948   0.0000
    14 C5'        -10.3110     5.1520    56.4530 C.3          1 ANP948   0.0000
    15 C4'         -9.9200     4.0890    55.4480 C.3          1 ANP948   0.0000
    16 O4'        -10.7090     4.2500    54.2630 O.3          1 ANP948   0.0000
    17 C3'         -8.4680     4.1940    54.9940 C.3          1 ANP948   0.0000
    18 O3'         -7.5560     3.4910    55.8440 O.3          1 ANP948   0.0000
    19 C2'         -8.5240     3.6150    53.6040 C.3          1 ANP948   0.0000
    20 O2'         -8.3580     2.1920    53.6510 O.3          1 ANP948   0.0000
    21 C1'         -9.9200     3.9780    53.1110 C.3          1 ANP948   0.0000
    22 N9          -9.8360     5.1800    52.2310 N.pl3        1 ANP948   0.0000
    23 C8          -9.9500     6.4860    52.5520 C.2          1 ANP948   0.0000
    24 N7          -9.8010     7.2840    51.4560 N.2          1 ANP948   0.0000
    25 C5          -9.5860     6.4610    50.4200 C.ar         1 ANP948   0.0000
    26 C6          -9.3390     6.6240    48.9830 C.ar         1 ANP948   0.0000
    27 N6          -9.3050     7.8640    48.4400 N.pl3        1 ANP948   0.0000
    28 N1          -9.1700     5.5000    48.2450 N.ar         1 ANP948   0.0000
    29 C2          -9.2120     4.2640    48.7730 C.ar         1 ANP948   0.0000
    30 N3          -9.4150     4.0450    50.0890 N.ar         1 ANP948   0.0000
    31 C4          -9.6040     5.0830    50.9290 C.ar         1 ANP948   0.0000
    32 H3B        -10.9225     6.2606    59.2319 H            1 ANP948   0.0000
    33 H5'1       -11.2332     4.9692    56.7939 H            1 ANP948   0.0000
    34 H5'2        -9.6658     5.1457    57.2170 H            1 ANP948   0.0000
    35 H4'        -10.0838     3.1831    55.8384 H            1 ANP948   0.0000
    36 H3'         -8.2028     5.1569    54.9440 H            1 ANP948   0.0000
    37 H6          -6.6673     3.9492    55.8307 H            1 ANP948   0.0000
    38 H2'         -7.8260     4.0313    53.0213 H            1 ANP948   0.0000
    39 H8          -9.0887     1.7892    54.2022 H            1 ANP948   0.0000
    40 H1'        -10.3120     3.2109    52.6032 H            1 ANP948   0.0000
    41 H10        -10.1220     6.8257    53.4767 H            1 ANP948   0.0000
    42 H11         -9.1367     7.9766    47.4607 H            1 ANP948   0.0000
    43 H12         -9.4481     8.6672    49.0183 H            1 ANP948   0.0000
    44 H13         -9.0882     3.4777    48.1678 H            1 ANP948   0.0000
@<TRIPOS>BOND
     1    1    2      ar
     2    1    3      ar
     3    1    4      ar
     4    1    8       1
     5    5    6      ar
     6    5    7      ar
     7    5    8       1
     8    5   12       1
     9    9   10      ar
    10    9   11      ar
    11    9   12       1
    12    9   13       1
    13   13   14       1
    14   14   15       1
    15   15   16       1
    16   15   17       1
    17   16   21       1
    18   17   18       1
    19   17   19       1
    20   19   20       1
    21   19   21       1
    22   21   22       1
    23   22   23       1
    24   22   31       1
    25   23   24       2
    26   24   25       1
    27   25   26      ar
    28   25   31      ar
    29   26   27       1
    30   26   28      ar
    31   28   29      ar
    32   29   30      ar
    33   30   31      ar
    34   29   44       1
    35   27   43       1
    36   27   42       1
    37    8   32       1
    38   23   41       1
    39   14   33       1
    40   14   34       1
    41   15   35       1
    42   17   36       1
    43   18   37       1
    44   19   38       1
    45   20   39       1
    46   21   40       1
@<TRIPOS>SUBSTRUCTURE
     1 ANP948      1 GROUP             4 A     ANP     0 **** ANP A 948
