@<TRIPOS>MOLECULE
3mh7_UNK_UNK_UNK_UNK_UNK_2_ligand
   53    52     5     0     0
SMALL
NO_CHARGES


@<TRIPOS>ATOM
     1 N           59.8040    13.7010    31.7240 N.4          1 UNK503   1.0000
     2 CA          60.7370    13.6180    30.5970 C.3          1 UNK503   0.0000
     3 C           62.0110    14.4180    30.8700 C.2          1 UNK503   0.0000
     4 O           62.0010    15.3830    31.6470 O.2          1 UNK503   0.0000
     5 CB          60.0710    14.0900    29.2900 C.3          1 UNK503   0.0000
     6 H1          58.9827    13.1695    31.5167 H            1 UNK503   0.0000
     7 H2          60.2401    13.3338    32.5455 H            1 UNK503   0.0000
     8 HA          60.9951    12.6588    30.4816 H            1 UNK503   0.0000
     9 HB1         60.7274    14.0235    28.5385 H            1 UNK503   0.0000
    10 HB2         59.2785    13.5130    29.0924 H            1 UNK503   0.0000
    11 HB3         59.7749    15.0398    29.3909 H            1 UNK503   0.0000
    12 N           63.1040    13.9970    30.2340 N.am         2 UNK504   0.0000
    13 CA          64.3860    14.6930    30.3240 C.3          2 UNK504   0.0000
    14 C           64.3890    15.9160    29.3930 C.2          2 UNK504   0.0000
    15 O           63.5880    15.9870    28.4570 O.2          2 UNK504   0.0000
    16 CB          65.5260    13.7400    29.9820 C.3          2 UNK504   0.0000
    17 H7          63.0445    13.1716    29.6726 H            2 UNK504   0.0000
    18 H8          64.5092    15.0101    31.2643 H            2 UNK504   0.0000
    19 H9          66.3975    14.2260    30.0466 H            2 UNK504   0.0000
    20 H10         65.5235    12.9733    30.6240 H            2 UNK504   0.0000
    21 H11         65.4046    13.3956    29.0510 H            2 UNK504   0.0000
    22 N           65.2740    16.8770    29.6560 N.am         3 UNK505   0.0000
    23 CA          65.3570    18.0930    28.8450 C.3          3 UNK505   0.0000
    24 C           66.8040    18.5810    28.7570 C.2          3 UNK505   0.0000
    25 O           67.6010    18.3260    29.6510 O.2          3 UNK505   0.0000
    26 CB          64.4370    19.1830    29.4010 C.3          3 UNK505   0.0000
    27 H12         65.8987    16.7644    30.4287 H            3 UNK505   0.0000
    28 H13         65.0488    17.8699    27.9202 H            3 UNK505   0.0000
    29 H14         64.5098    20.0025    28.8326 H            3 UNK505   0.0000
    30 H15         63.4919    18.8563    29.3953 H            3 UNK505   0.0000
    31 H16         64.7083    19.4021    30.3382 H            3 UNK505   0.0000
    32 N           67.1390    19.2710    27.6700 N.am         4 UNK506   0.0000
    33 CA          68.5220    19.6780    27.3960 C.3          4 UNK506   0.0000
    34 C           68.7850    21.1190    27.8030 C.2          4 UNK506   0.0000
    35 O           67.9890    22.0100    27.5240 O.2          4 UNK506   0.0000
    36 CB          68.8860    19.4600    25.9080 C.3          4 UNK506   0.0000
    37 H17         66.4238    19.5209    27.0173 H            4 UNK506   0.0000
    38 H18         69.1228    19.0949    27.9428 H            4 UNK506   0.0000
    39 H19         69.8315    19.7452    25.7509 H            4 UNK506   0.0000
    40 H20         68.7876    18.4915    25.6792 H            4 UNK506   0.0000
    41 H21         68.2742    20.0024    25.3323 H            4 UNK506   0.0000
    42 N           69.9060    21.3390    28.4720 N.am         5 UNK507   0.0000
    43 CA          70.3590    22.6840    28.7830 C.3          5 UNK507   0.0000
    44 C           71.8170    22.8060    28.3590 C.2          5 UNK507   0.0000
    45 O           72.5940    23.5010    29.0060 O.co2        5 UNK507   0.0000
    46 CB          70.2110    22.9770    30.2590 C.3          5 UNK507   0.0000
    47 OXT         72.2670    22.2010    27.3800 O.co2        5 UNK507  -1.0000
    48 H22         70.4555    20.5589    28.7712 H            5 UNK507   0.0000
    49 H23         69.8122    23.3407    28.2636 H            5 UNK507   0.0000
    50 H24         70.5285    23.9063    30.4479 H            5 UNK507   0.0000
    51 H25         69.2494    22.8937    30.5206 H            5 UNK507   0.0000
    52 H26         70.7572    22.3248    30.7847 H            5 UNK507   0.0000
    53 H27         59.5525    14.6564    31.8788 H            5 UNK507   0.0000
@<TRIPOS>BOND
     1    1    2       1
     2    2    3       1
     3    2    5       1
     4    3    4       2
     5    1    6       1
     6    1    7       1
     7    2    8       1
     8    3   12      am
     9    5    9       1
    10    5   10       1
    11    5   11       1
    12   12   13       1
    13   13   14       1
    14   13   16       1
    15   14   15       2
    16   16   21       1
    17   12   17       1
    18   13   18       1
    19   14   22      am
    20   16   19       1
    21   16   20       1
    22   22   23       1
    23   23   24       1
    24   23   26       1
    25   24   25       2
    26   26   31       1
    27   22   27       1
    28   23   28       1
    29   24   32      am
    30   26   29       1
    31   26   30       1
    32   32   33       1
    33   33   34       1
    34   33   36       1
    35   34   35       2
    36   36   41       1
    37   32   37       1
    38   33   38       1
    39   34   42      am
    40   36   39       1
    41   36   40       1
    42   42   43       1
    43   43   44       1
    44   43   46       1
    45   44   45      ar
    46   44   47      ar
    47   46   52       1
    48   42   48       1
    49   43   49       1
    50    1   53       1
    51   46   50       1
    52   46   51       1
@<TRIPOS>SUBSTRUCTURE
     1 UNK503      1 GROUP             4 C     UNK     0 **** UNK C 503
     2 UNK504     12 GROUP             4 C     UNK     0 **** UNK C 504
     3 UNK505     22 GROUP             4 C     UNK     0 **** UNK C 505
     4 UNK506     32 GROUP             4 C     UNK     0 **** UNK C 506
     5 UNK507     42 GROUP             4 C     UNK     0 **** UNK C 507
