@<TRIPOS>MOLECULE
1x27_ASP_ASP_TYR_VAL_PTR_1_ligand
   88    89     5     0     0
SMALL
NO_CHARGES


@<TRIPOS>ATOM
     1 N           65.5480    29.8510   104.7410 N.4          1 ASP761   1.0000
     2 CA          64.1430    30.3220   104.5700 C.3          1 ASP761   0.0000
     3 C           63.5140    30.7960   105.8880 C.2          1 ASP761   0.0000
     4 O           63.6650    31.9570   106.2660 O.2          1 ASP761   0.0000
     5 CB          63.2900    29.2150   103.9300 C.3          1 ASP761   0.0000
     6 CG          63.3870    27.8890   104.6680 C.2          1 ASP761   0.0000
     7 OD1         62.7770    26.9040   104.1970 O.co2        1 ASP761   0.0000
     8 OD2         64.0680    27.8260   105.7150 O.co2        1 ASP761  -1.0000
     9 H1          66.0947    30.5773   105.1577 H            1 ASP761   0.0000
    10 H2          65.5596    29.0444   105.3319 H            1 ASP761   0.0000
    11 HA          64.1561    31.0994   103.9411 H            1 ASP761   0.0000
    12 HB1         63.5985    29.0791   102.9885 H            1 ASP761   0.0000
    13 HB2         62.3344    29.5097   103.9284 H            1 ASP761   0.0000
    14 N           62.8140    29.9100   106.5890 N.am         2 PTR762   0.0000
    15 CA          62.1800    30.2860   107.8480 C.3          2 PTR762   0.0000
    16 C           62.7530    29.5510   109.0590 C.2          2 PTR762   0.0000
    17 O           63.3400    28.4770   108.9280 O.2          2 PTR762   0.0000
    18 CB          60.6620    30.0660   107.7620 C.3          2 PTR762   0.0000
    19 CG          59.9120    31.1700   107.0310 C.ar         2 PTR762   0.0000
    20 CD1         60.2400    31.5280   105.7180 C.ar         2 PTR762   0.0000
    21 CD2         58.8680    31.8510   107.6510 C.ar         2 PTR762   0.0000
    22 CE1         59.5460    32.5370   105.0470 C.ar         2 PTR762   0.0000
    23 CE2         58.1700    32.8550   106.9900 C.ar         2 PTR762   0.0000
    24 CZ          58.5120    33.1940   105.6940 C.ar         2 PTR762   0.0000
    25 OH          57.7670    34.2350   105.0410 O.3          2 PTR762   0.0000
    26 P           58.3690    35.2060   103.8830 P.3          2 PTR762   0.0000
    27 O1P         57.3170    36.1870   103.5170 O.co2        2 PTR762   0.0000
    28 O2P         58.7600    34.4060   102.6920 O.co2        2 PTR762  -1.0000
    29 O3P         59.5350    35.9590   104.3930 O.co2        2 PTR762  -1.0000
    30 H6          62.3367    31.2640   107.9855 H            2 PTR762   0.0000
    31 H7          60.3008    30.0045   108.6925 H            2 PTR762   0.0000
    32 H8          60.4967    29.2041   107.2826 H            2 PTR762   0.0000
    33 HD1         60.9856    31.0520   105.2516 H            2 PTR762   0.0000
    34 HD2         58.6156    31.6135   108.5890 H            2 PTR762   0.0000
    35 HE1         59.7927    32.7827   104.1096 H            2 PTR762   0.0000
    36 HE2         57.4215    33.3315   107.4512 H            2 PTR762   0.0000
    37 H13         62.7207    28.9741   106.2493 H            2 PTR762   0.0000
    38 N           62.5910    30.1550   110.2330 N.am         3 ASP763   0.0000
    39 CA          63.0730    29.5890   111.4920 C.3          3 ASP763   0.0000
    40 C           61.8650    29.0680   112.2580 C.2          3 ASP763   0.0000
    41 O           60.7630    29.5890   112.0930 O.2          3 ASP763   0.0000
    42 CB          63.7610    30.6680   112.3290 C.3          3 ASP763   0.0000
    43 CG          64.8390    31.4080   111.5620 C.2          3 ASP763   0.0000
    44 OD1         64.5390    31.9710   110.4880 O.co2        3 ASP763   0.0000
    45 OD2         65.9870    31.4350   112.0410 O.co2        3 ASP763  -1.0000
    46 H14         63.7103    28.8405   111.3085 H            3 ASP763   0.0000
    47 H15         64.1776    30.2351   113.1284 H            3 ASP763   0.0000
    48 H16         63.0719    31.3278   112.6285 H            3 ASP763   0.0000
    49 H17         62.1182    31.0359   110.2555 H            3 ASP763   0.0000
    50 N           62.0630    28.0550   113.1000 N.am         4 TYR764   0.0000
    51 CA          60.9510    27.4920   113.8740 C.3          4 TYR764   0.0000
    52 C           61.0560    27.6870   115.3890 C.2          4 TYR764   0.0000
    53 O           62.0940    28.1130   115.9040 O.2          4 TYR764   0.0000
    54 CB          60.7760    26.0000   113.5490 C.3          4 TYR764   0.0000
    55 CG          60.1420    25.7460   112.1960 C.ar         4 TYR764   0.0000
    56 CD1         60.7880    26.1320   111.0160 C.ar         4 TYR764   0.0000
    57 CD2         58.8870    25.1400   112.0930 C.ar         4 TYR764   0.0000
    58 CE1         60.2010    25.9230   109.7640 C.ar         4 TYR764   0.0000
    59 CE2         58.2890    24.9260   110.8470 C.ar         4 TYR764   0.0000
    60 CZ          58.9540    25.3210   109.6880 C.ar         4 TYR764   0.0000
    61 OH          58.3730    25.1150   108.4580 O.3          4 TYR764   0.0000
    62 H18         62.9812    27.6734   113.2059 H            4 TYR764   0.0000
    63 H19         60.1184    27.9579   113.5744 H            4 TYR764   0.0000
    64 H20         60.1962    25.5888   114.2524 H            4 TYR764   0.0000
    65 H21         61.6765    25.5653   113.5632 H            4 TYR764   0.0000
    66 H22         61.6874    26.5660   111.0692 H            4 TYR764   0.0000
    67 H23         58.4088    24.8548   112.9236 H            4 TYR764   0.0000
    68 H24         60.6764    26.2052   108.9307 H            4 TYR764   0.0000
    69 H25         57.3899    24.4923   110.7882 H            4 TYR764   0.0000
    70 HH          57.4740    24.6815   108.3960 H            4 TYR764   0.0000
    71 N           59.9680    27.3750   116.0920 N.am         5 VAL765   0.0000
    72 CA          59.9030    27.5180   117.5470 C.3          5 VAL765   0.0000
    73 C           60.8980    26.6320   118.2740 C.2          5 VAL765   0.0000
    74 O           61.3250    25.6190   117.6830 O.2          5 VAL765   0.0000
    75 CB          58.5070    27.1590   118.0840 C.3          5 VAL765   0.0000
    76 CG1         57.4690    28.0740   117.4700 C.3          5 VAL765   0.0000
    77 CG2         58.1900    25.7000   117.7750 C.3          5 VAL765   0.0000
    78 H27         59.1648    27.0298   115.6066 H            5 VAL765   0.0000
    79 H28         60.0971    28.4707   117.7808 H            5 VAL765   0.0000
    80 H29         61.2028    26.8536   119.2003 H            5 VAL765   0.0000
    81 HB          58.5015    27.2862   119.0759 H            5 VAL765   0.0000
    82 HG11        56.5641    27.8358   117.8228 H            5 VAL765   0.0000
    83 HG12        57.6796    29.0227   117.7059 H            5 VAL765   0.0000
    84 HG13        57.4776    27.9680   116.4757 H            5 VAL765   0.0000
    85 HG21        57.2816    25.4745   118.1270 H            5 VAL765   0.0000
    86 HG22        58.2090    25.5571   116.7854 H            5 VAL765   0.0000
    87 HG23        58.8715    25.1115   118.2099 H            5 VAL765   0.0000
    88 H37         65.9317    29.6156   103.8480 H            5 VAL765   0.0000
@<TRIPOS>BOND
     1    1    2       1
     2    2    5       1
     3    2    3       1
     4    5    6       1
     5    6    7      ar
     6    6    8      ar
     7    3    4       2
     8    1    9       1
     9    1   10       1
    10    2   11       1
    11   77   86       1
    12    5   12       1
    13    5   13       1
    14    3   14      am
    15   14   15       1
    16   15   16       1
    17   15   18       1
    18   16   17       2
    19   18   19       1
    20   19   20      ar
    21   19   21      ar
    22   20   22      ar
    23   21   23      ar
    24   22   24      ar
    25   23   24      ar
    26   24   25       1
    27   25   26       1
    28   26   27      ar
    29   26   28      ar
    30   26   29      ar
    31    1   88       1
    32   23   36       1
    33   15   30       1
    34   42   48       1
    35   18   31       1
    36   18   32       1
    37   20   33       1
    38   21   34       1
    39   22   35       1
    40   14   37       1
    41   16   38      am
    42   38   39       1
    43   39   42       1
    44   39   40       1
    45   42   43       1
    46   43   44      ar
    47   43   45      ar
    48   40   41       2
    49   42   47       1
    50   40   50      am
    51   39   46       1
    52   38   49       1
    53   50   51       1
    54   51   54       1
    55   51   52       1
    56   54   55       1
    57   55   56      ar
    58   55   57      ar
    59   56   58      ar
    60   58   60      ar
    61   60   61       1
    62   60   59      ar
    63   59   57      ar
    64   52   53       2
    65   61   70       1
    66   50   62       1
    67   51   63       1
    68   52   71      am
    69   54   64       1
    70   54   65       1
    71   56   66       1
    72   57   67       1
    73   58   68       1
    74   59   69       1
    75   71   72       1
    76   72   75       1
    77   72   73       1
    78   75   76       1
    79   75   77       1
    80   73   74       2
    81   77   87       1
    82   71   78       1
    83   72   79       1
    84   73   80       1
    85   75   81       1
    86   76   82       1
    87   76   83       1
    88   76   84       1
    89   77   85       1
@<TRIPOS>SUBSTRUCTURE
     1 ASP761      1 RESIDUE           4 I     ASP     0 **** ASP I 761
     2 PTR762     14 GROUP             4 I     PTR     0 **** PTR I 762
     3 ASP763     38 RESIDUE           4 I     ASP     0 **** ASP I 763
     4 TYR764     50 RESIDUE           4 I     TYR     0 **** TYR I 764
     5 VAL765     71 RESIDUE           4 I     VAL     0 **** VAL I 765
