@<TRIPOS>MOLECULE
3a7e_DNC_1_ligand
   17    17     1     0     0
SMALL
NO_CHARGES


@<TRIPOS>ATOM
     1 C1         -14.5710     9.2110    22.2240 C.ar         1 DNC217   0.0000
     2 O1         -15.8250     9.7400    22.1350 O.3          1 DNC217   0.0000
     3 C2         -13.4380     9.8980    21.5720 C.ar         1 DNC217   0.0000
     4 O2         -13.6410    11.0560    20.8860 O.3          1 DNC217  -1.0000
     5 C3         -12.0900     9.2970    21.6920 C.ar         1 DNC217   0.0000
     6 N1         -10.9890     9.9030    21.0850 N.2          1 DNC217   1.0000
     7 O3         -10.0520     9.2250    20.7170 O.co2        1 DNC217   0.0000
     8 O4         -10.9690    11.1060    20.9050 O.co2        1 DNC217  -1.0000
     9 C4         -11.9410     8.1150    22.4080 C.ar         1 DNC217   0.0000
    10 C5         -13.0370     7.4950    23.0140 C.ar         1 DNC217   0.0000
    11 N2         -12.8340     6.3020    23.7300 N.2          1 DNC217   1.0000
    12 O5         -12.1490     5.4130    23.2520 O.co2        1 DNC217   0.0000
    13 O6         -13.3400     6.1510    24.8300 O.co2        1 DNC217  -1.0000
    14 C6         -14.3260     8.0340    22.9240 C.ar         1 DNC217   0.0000
    15 H1         -16.5950     9.2780    22.5751 H            1 DNC217   0.0000
    16 H2         -11.0343     7.7014    22.4909 H            1 DNC217   0.0000
    17 H3         -15.0861     7.5633    23.3720 H            1 DNC217   0.0000
@<TRIPOS>BOND
     1    1    2       1
     2    1    3      ar
     3    1   14      ar
     4    3    4       1
     5    3    5      ar
     6    5    6       1
     7    5    9      ar
     8    6    7      ar
     9    6    8      ar
    10    9   10      ar
    11   10   11       1
    12   10   14      ar
    13   11   12      ar
    14   11   13      ar
    15    2   15       1
    16   14   17       1
    17    9   16       1
@<TRIPOS>SUBSTRUCTURE
     1 DNC217      1 GROUP             4 A     DNC     0 **** DNC A 217
