@<TRIPOS>MOLECULE
2bdi_PBZ_3_ligand
   20    20     1     0     0
SMALL
NO_CHARGES


@<TRIPOS>ATOM
     1 N2          26.9860    -4.0210   -52.9440 N.pl3        1 PBZ703   1.0000
     2 N3          25.0170    -3.4120   -54.0330 N.pl3        1 PBZ703   0.0000
     3 C7          26.0170    -4.2560   -53.7910 C.cat        1 PBZ703   0.0000
     4 C4          26.0350    -5.5190   -54.4770 C.ar         1 PBZ703   0.0000
     5 C2          24.8430    -7.4060   -55.6610 C.ar         1 PBZ703   0.0000
     6 C3          24.8400    -6.1370   -54.9880 C.ar         1 PBZ703   0.0000
     7 C5          27.2150    -6.1510   -54.6390 C.ar         1 PBZ703   0.0000
     8 C6          27.2160    -7.4210   -55.3070 C.ar         1 PBZ703   0.0000
     9 C1          26.0530    -8.0330   -55.8060 C.ar         1 PBZ703   0.0000
    10 N1          26.1920    -9.2580   -56.4270 N.pl3        1 PBZ703   0.0000
    11 H1          27.7081    -4.6996   -52.8095 H            1 PBZ703   0.0000
    12 H2          27.0046    -3.1628   -52.4311 H            1 PBZ703   0.0000
    13 H3          24.3071    -3.6543   -54.6943 H            1 PBZ703   0.0000
    14 H4          23.9989    -7.8142   -56.0086 H            1 PBZ703   0.0000
    15 H5          23.9683    -5.6616   -54.8692 H            1 PBZ703   0.0000
    16 H6          28.0654    -5.7461   -54.3031 H            1 PBZ703   0.0000
    17 H7          28.0888    -7.8950   -55.4235 H            1 PBZ703   0.0000
    18 H8          27.0962    -9.6771   -56.5094 H            1 PBZ703   0.0000
    19 H9          25.3885    -9.7263   -56.7944 H            1 PBZ703   0.0000
    20 H10         24.9754    -2.5354   -53.5535 H            1 PBZ703   0.0000
@<TRIPOS>BOND
     1    1    3      ar
     2    2    3      ar
     3    3    4       1
     4    4    6      ar
     5    4    7      ar
     6    5    6      ar
     7    5    9      ar
     8    7    8      ar
     9    8    9      ar
    10    9   10       1
    11    1   11       1
    12    1   12       1
    13    2   13       1
    14    5   14       1
    15    6   15       1
    16    7   16       1
    17    8   17       1
    18   10   18       1
    19   10   19       1
    20    2   20       1
@<TRIPOS>SUBSTRUCTURE
     1 PBZ703      1 GROUP             4 C     PBZ     0 **** PBZ C 703
