@<TRIPOS>MOLECULE
4ic7_ANP_1_ligand
   44    46     1     0     0
SMALL
NO_CHARGES


@<TRIPOS>ATOM
     1 PG          26.0920   -18.3250    12.2820 P.3          1 ANP501   0.0000
     2 O1G         24.7740   -19.0320    12.2780 O.co2        1 ANP501   0.0000
     3 O2G         27.2780   -19.1500    11.7370 O.co2        1 ANP501  -1.0000
     4 O3G         26.5590   -18.0210    13.7710 O.co2        1 ANP501  -1.0000
     5 PB          25.8850   -16.7690     9.7990 P.3          1 ANP501   0.0000
     6 O1B         25.7590   -18.3210     9.5170 O.co2        1 ANP501   0.0000
     7 O2B         27.0460   -16.0230     9.0710 O.co2        1 ANP501  -1.0000
     8 N3B         25.9800   -16.8560    11.5430 N.3          1 ANP501   0.0000
     9 PA          23.3010   -17.2120     8.8510 P.3          1 ANP501   0.0000
    10 O1A         23.2300   -18.6160     9.4110 O.co2        1 ANP501   0.0000
    11 O2A         23.7620   -17.3180     7.4590 O.co2        1 ANP501  -1.0000
    12 O3A         24.3720   -16.3470     9.5720 O.3          1 ANP501   0.0000
    13 O5'         21.9420   -16.4880     8.9120 O.3          1 ANP501   0.0000
    14 C5'         21.3740   -16.2170    10.1660 C.3          1 ANP501   0.0000
    15 C4'         20.0520   -16.7480    10.4420 C.3          1 ANP501   0.0000
    16 O4'         19.1400   -16.1170     9.6520 O.3          1 ANP501   0.0000
    17 C3'         19.9950   -18.1570    10.0640 C.3          1 ANP501   0.0000
    18 O3'         20.2360   -18.9870    11.1160 O.3          1 ANP501   0.0000
    19 C2'         18.6690   -18.3550     9.6840 C.3          1 ANP501   0.0000
    20 O2'         17.9000   -18.8280    10.7030 O.3          1 ANP501   0.0000
    21 C1'         18.2310   -17.0740     9.1650 C.3          1 ANP501   0.0000
    22 N9          18.3780   -17.1240     7.7130 N.pl3        1 ANP501   0.0000
    23 C8          19.5400   -17.1860     7.0690 C.2          1 ANP501   0.0000
    24 N7          19.2900   -17.2400     5.7770 N.2          1 ANP501   0.0000
    25 C5          17.9690   -17.2230     5.5780 C.ar         1 ANP501   0.0000
    26 C6          17.1790   -17.2660     4.4360 C.ar         1 ANP501   0.0000
    27 N6          17.7780   -17.3350     3.1400 N.pl3        1 ANP501   0.0000
    28 N1          15.8620   -17.2320     4.5630 N.ar         1 ANP501   0.0000
    29 C2          15.3370   -17.1670     5.7840 C.ar         1 ANP501   0.0000
    30 N3          16.0550   -17.1340     6.9120 N.ar         1 ANP501   0.0000
    31 C4          17.3820   -17.1600     6.8230 C.ar         1 ANP501   0.0000
    32 H3B         26.7865   -16.3317    11.8161 H            1 ANP501   0.0000
    33 H5'1        21.3212   -15.2229    10.2604 H            1 ANP501   0.0000
    34 H5'2        21.9935   -16.5852    10.8593 H            1 ANP501   0.0000
    35 H4'         19.8208   -16.6328    11.4081 H            1 ANP501   0.0000
    36 H3'         20.6176   -18.3499     9.3056 H            1 ANP501   0.0000
    37 H6          21.2165   -19.1742    11.1751 H            1 ANP501   0.0000
    38 H2'         18.6501   -19.0211     8.9384 H            1 ANP501   0.0000
    39 H8          17.9092   -18.1736    11.4591 H            1 ANP501   0.0000
    40 H1'         17.2914   -16.8652     9.4361 H            1 ANP501   0.0000
    41 H10         20.4460   -17.1908     7.4922 H            1 ANP501   0.0000
    42 H11         17.2013   -17.3656     2.3236 H            1 ANP501   0.0000
    43 H12         18.7738   -17.3527     3.0497 H            1 ANP501   0.0000
    44 H13         14.3405   -17.1411     5.8634 H            1 ANP501   0.0000
@<TRIPOS>BOND
     1    1    2      ar
     2    1    3      ar
     3    1    4      ar
     4    1    8       1
     5    5    6      ar
     6    5    7      ar
     7    5    8       1
     8    5   12       1
     9    9   10      ar
    10    9   11      ar
    11    9   12       1
    12    9   13       1
    13   13   14       1
    14   14   15       1
    15   15   16       1
    16   15   17       1
    17   16   21       1
    18   17   18       1
    19   17   19       1
    20   19   20       1
    21   19   21       1
    22   21   22       1
    23   22   23       1
    24   22   31       1
    25   23   24       2
    26   24   25       1
    27   25   26      ar
    28   25   31      ar
    29   26   27       1
    30   26   28      ar
    31   28   29      ar
    32   29   30      ar
    33   30   31      ar
    34   29   44       1
    35   27   43       1
    36   27   42       1
    37    8   32       1
    38   23   41       1
    39   14   33       1
    40   14   34       1
    41   15   35       1
    42   17   36       1
    43   18   37       1
    44   19   38       1
    45   20   39       1
    46   21   40       1
@<TRIPOS>SUBSTRUCTURE
     1 ANP501      1 GROUP             4 A     ANP     0 **** ANP A 501
