@<TRIPOS>MOLECULE
2hka_C3S_2_ligand
   77    80     1     0     0
SMALL
NO_CHARGES


@<TRIPOS>ATOM
     1 C65        -18.1940   -41.2050    44.4270 C.3          1 C3S401   0.0000
     2 C63        -18.2160   -39.7790    43.8160 C.3          1 C3S401   0.0000
     3 C69        -17.1810   -39.7680    42.6700 C.3          1 C3S401   0.0000
     4 C60        -19.6590   -39.4820    43.3350 C.3          1 C3S401   0.0000
     5 C57        -19.9040   -38.2880    42.3600 C.3          1 C3S401   0.0000
     6 C54        -21.3310   -37.7240    42.5220 C.3          1 C3S401   0.0000
     7 C48        -21.5560   -36.7280    43.7070 C.3          1 C3S401   0.0000
     8 C50        -20.9490   -35.3570    43.3120 C.3          1 C3S401   0.0000
     9 C38        -23.0880   -36.5620    43.9800 C.3          1 C3S401   0.0000
    10 C35        -23.7550   -37.9430    44.3930 C.3          1 C3S401   0.0000
    11 C29        -23.6470   -35.6010    45.1190 C.3          1 C3S401   0.0000
    12 C26        -23.6720   -34.0630    44.8610 C.3          1 C3S401   0.0000
    13 C40        -22.8550   -35.8670    46.4710 C.3          1 C3S401   0.0000
    14 C30        -25.1260   -36.0650    45.1090 C.3          1 C3S401   0.0000
    15 C32        -25.0890   -37.6020    45.1490 C.3          1 C3S401   0.0000
    16 C18        -25.9660   -35.3630    46.2700 C.3          1 C3S401   0.0000
    17 C15        -27.4660   -35.8640    46.2690 C.3          1 C3S401   0.0000
    18 C20        -25.8820   -33.7820    46.0780 C.3          1 C3S401   0.0000
    19 C23        -24.3680   -33.2950    46.0330 C.3          1 C3S401   0.0000
    20 C22        -26.7380   -33.0260    47.1870 C.3          1 C3S401   0.0000
    21 C44        -25.9930   -33.0140    48.5780 C.3          1 C3S401   0.0000
    22 C12        -28.1420   -33.6770    47.3560 C.2          1 C3S401   0.0000
    23 C9         -29.2440   -32.8400    48.0270 C.3          1 C3S401   0.0000
    24 C13        -28.4520   -34.9280    46.9490 C.2          1 C3S401   0.0000
    25 C1         -26.9660   -31.5520    46.6960 C.3          1 C3S401   0.0000
    26 C4         -27.8730   -30.7360    47.6600 C.3          1 C3S401   0.0000
    27 C7         -29.2860   -31.3600    47.5780 C.3          1 C3S401   0.0000
    28 O6         -30.2370   -30.7680    48.4730 O.3          1 C3S401   0.0000
    29 S1         -31.6030   -30.3230    48.0000 S.o2         1 C3S401   0.0000
    30 O3         -32.3430   -29.7710    49.1390 O.co2        1 C3S401   0.0000
    31 O2         -32.3140   -31.4180    47.3710 O.co2        1 C3S401   0.0000
    32 O4         -31.3430   -29.2610    47.0020 O.co2        1 C3S401  -1.0000
    33 H1         -18.8534   -41.2565    45.1770 H            1 C3S401   0.0000
    34 H2         -18.4366   -41.8729    43.7234 H            1 C3S401   0.0000
    35 H3         -17.2778   -41.4047    44.7744 H            1 C3S401   0.0000
    36 H4         -17.9513   -39.1121    44.5126 H            1 C3S401   0.0000
    37 H5         -17.1625   -38.8624    42.2462 H            1 C3S401   0.0000
    38 H6         -16.2757   -39.9831    43.0364 H            1 C3S401   0.0000
    39 H7         -17.4345   -40.4513    41.9853 H            1 C3S401   0.0000
    40 H8         -20.2101   -39.3106    44.1516 H            1 C3S401   0.0000
    41 H9         -19.9901   -40.3067    42.8765 H            1 C3S401   0.0000
    42 H10        -19.7824   -38.6042    41.4191 H            1 C3S401   0.0000
    43 H11        -19.2423   -37.5644    42.5567 H            1 C3S401   0.0000
    44 H12        -21.9507   -38.4978    42.6534 H            1 C3S401   0.0000
    45 H13        -21.5676   -37.2475    41.6752 H            1 C3S401   0.0000
    46 H14        -21.1025   -37.0734    44.5286 H            1 C3S401   0.0000
    47 H15        -21.0833   -34.7055    44.0586 H            1 C3S401   0.0000
    48 H16        -19.9706   -35.4642    43.1350 H            1 C3S401   0.0000
    49 H17        -21.4016   -35.0172    42.4876 H            1 C3S401   0.0000
    50 H18        -23.5110   -36.2763    43.1201 H            1 C3S401   0.0000
    51 H19        -23.1410   -38.4546    44.9940 H            1 C3S401   0.0000
    52 H20        -23.9521   -38.4866    43.5771 H            1 C3S401   0.0000
    53 H21        -24.1716   -33.8840    44.0135 H            1 C3S401   0.0000
    54 H22        -22.7322   -33.7337    44.7698 H            1 C3S401   0.0000
    55 H23        -23.2058   -35.2635    47.1871 H            1 C3S401   0.0000
    56 H24        -22.9789   -36.8199    46.7479 H            1 C3S401   0.0000
    57 H25        -21.8821   -35.6850    46.3287 H            1 C3S401   0.0000
    58 H26        -25.5261   -35.7916    44.2342 H            1 C3S401   0.0000
    59 H27        -25.0639   -37.9365    46.0910 H            1 C3S401   0.0000
    60 H28        -25.8794   -37.9930    44.6774 H            1 C3S401   0.0000
    61 H29        -25.5523   -35.5991    47.1493 H            1 C3S401   0.0000
    62 H30        -27.4996   -36.7459    46.7392 H            1 C3S401   0.0000
    63 H31        -27.7539   -35.9818    45.3186 H            1 C3S401   0.0000
    64 H32        -26.2898   -33.5680    45.1904 H            1 C3S401   0.0000
    65 H33        -24.3295   -32.3095    45.8679 H            1 C3S401   0.0000
    66 H34        -23.9140   -33.5059    46.8987 H            1 C3S401   0.0000
    67 H35        -26.5538   -32.5336    49.2523 H            1 C3S401   0.0000
    68 H36        -25.8389   -33.9542    48.8817 H            1 C3S401   0.0000
    69 H37        -25.1142   -32.5466    48.4815 H            1 C3S401   0.0000
    70 H38        -29.0956   -32.8627    49.0157 H            1 C3S401   0.0000
    71 H39        -30.1274   -33.2569    47.8129 H            1 C3S401   0.0000
    72 H40        -29.3836   -35.2567    47.1041 H            1 C3S401   0.0000
    73 H41        -27.3978   -31.5776    45.7944 H            1 C3S401   0.0000
    74 H42        -26.0787   -31.0960    46.6278 H            1 C3S401   0.0000
    75 H43        -27.9028   -29.7776    47.3762 H            1 C3S401   0.0000
    76 H44        -27.5237   -30.7961    48.5951 H            1 C3S401   0.0000
    77 H45        -29.6257   -31.3023    46.6392 H            1 C3S401   0.0000
@<TRIPOS>BOND
     1    1    2       1
     2    2    3       1
     3    2    4       1
     4    4    5       1
     5    5    6       1
     6    6    7       1
     7    7    8       1
     8    7    9       1
     9    9   10       1
    10    9   11       1
    11   10   15       1
    12   11   12       1
    13   11   13       1
    14   11   14       1
    15   12   19       1
    16   14   15       1
    17   14   16       1
    18   16   17       1
    19   16   18       1
    20   17   24       1
    21   18   19       1
    22   18   20       1
    23   20   21       1
    24   20   22       1
    25   20   25       1
    26   22   23       1
    27   22   24       2
    28   23   27       1
    29   25   26       1
    30   26   27       1
    31   27   28       1
    32   28   29       1
    33   29   30      ar
    34   29   31      ar
    35   29   32      ar
    36    1   33       1
    37    1   34       1
    38    1   35       1
    39    2   36       1
    40    3   37       1
    41    3   38       1
    42    3   39       1
    43    4   40       1
    44    4   41       1
    45    5   42       1
    46    5   43       1
    47    6   44       1
    48    6   45       1
    49    7   46       1
    50    8   47       1
    51    8   48       1
    52    8   49       1
    53    9   50       1
    54   10   51       1
    55   10   52       1
    56   12   53       1
    57   12   54       1
    58   13   55       1
    59   13   56       1
    60   13   57       1
    61   14   58       1
    62   15   59       1
    63   15   60       1
    64   16   61       1
    65   17   62       1
    66   17   63       1
    67   18   64       1
    68   19   65       1
    69   19   66       1
    70   21   67       1
    71   21   68       1
    72   21   69       1
    73   23   70       1
    74   23   71       1
    75   24   72       1
    76   25   73       1
    77   25   74       1
    78   26   75       1
    79   26   76       1
    80   27   77       1
@<TRIPOS>SUBSTRUCTURE
     1 C3S401      1 GROUP             4 C     C3S     0 **** C3S C 401
