@<TRIPOS>MOLECULE
4nmc_FAD_1_ligand
   84    89     1     0     0
SMALL
NO_CHARGES


@<TRIPOS>ATOM
     1 PA         294.9120   103.9930  -180.0130 P.3          1 FAD2001   0.0000
     2 O1A        293.4110   104.3830  -179.9310 O.co2        1 FAD2001   0.0000
     3 O2A        295.8350   104.5790  -179.0730 O.co2        1 FAD2001  -1.0000
     4 O5B        295.2900   102.5850  -179.7810 O.3          1 FAD2001   0.0000
     5 C5B        294.3120   101.5680  -179.9300 C.3          1 FAD2001   0.0000
     6 C4B        294.8460   100.2270  -179.4320 C.3          1 FAD2001   0.0000
     7 O4B        294.5580   100.0060  -178.0840 O.3          1 FAD2001   0.0000
     8 C3B        294.2700    99.0550  -180.1560 C.3          1 FAD2001   0.0000
     9 O3B        294.8920    98.7700  -181.3490 O.3          1 FAD2001   0.0000
    10 C2B        294.5070    97.9510  -179.2030 C.3          1 FAD2001   0.0000
    11 O2B        295.7600    97.4050  -179.3500 O.3          1 FAD2001   0.0000
    12 C1B        294.3970    98.6250  -177.8850 C.3          1 FAD2001   0.0000
    13 N9A        293.1300    98.4130  -177.2200 N.pl3        1 FAD2001   0.0000
    14 C8A        291.8760    98.7800  -177.6720 C.2          1 FAD2001   0.0000
    15 N7A        290.9490    98.4320  -176.7760 N.2          1 FAD2001   0.0000
    16 C5A        291.5610    97.8280  -175.6900 C.ar         1 FAD2001   0.0000
    17 C6A        291.1110    97.2830  -174.4990 C.ar         1 FAD2001   0.0000
    18 N6A        289.7040    97.2760  -174.1780 N.pl3        1 FAD2001   0.0000
    19 N1A        291.9950    96.7590  -173.6310 N.ar         1 FAD2001   0.0000
    20 C2A        293.3260    96.7440  -173.8910 C.ar         1 FAD2001   0.0000
    21 N3A        293.7930    97.2680  -175.0510 N.ar         1 FAD2001   0.0000
    22 C4A        292.9560    97.8070  -175.9540 C.ar         1 FAD2001   0.0000
    23 N1         299.9070    95.6280  -185.1400 N.2          1 FAD2001   0.0000
    24 C2         300.5000    94.3540  -184.8050 C.2          1 FAD2001   0.0000
    25 O2         299.8670    93.4960  -183.9600 O.2          1 FAD2001   0.0000
    26 N3         301.6240    93.9250  -185.4760 N.pl3        1 FAD2001   0.0000
    27 C4         302.3100    94.7790  -186.3060 C.2          1 FAD2001   0.0000
    28 O4         303.4040    94.3120  -186.9940 O.2          1 FAD2001   0.0000
    29 C4X        301.9070    96.2140  -186.4070 C.2          1 FAD2001   0.0000
    30 N5         302.7030    97.1700  -187.0380 N.2          1 FAD2001   0.0000
    31 C5X        302.3090    98.5120  -187.0920 C.ar         1 FAD2001   0.0000
    32 C6         303.1220    99.4660  -187.7380 C.ar         1 FAD2001   0.0000
    33 C7         302.7280   100.8010  -187.7930 C.ar         1 FAD2001   0.0000
    34 C7M        303.6020   101.8230  -188.4830 C.3          1 FAD2001   0.0000
    35 C8         301.5380   101.1990  -187.2150 C.ar         1 FAD2001   0.0000
    36 C8M        301.1240   102.6380  -187.2820 C.3          1 FAD2001   0.0000
    37 C9         300.7210   100.2570  -186.5730 C.ar         1 FAD2001   0.0000
    38 C9A        301.1040    98.9180  -186.5100 C.ar         1 FAD2001   0.0000
    39 N10        300.2690    97.9520  -185.8470 N.pl3        1 FAD2001   0.0000
    40 C10        300.6660    96.5970  -185.7890 C.2          1 FAD2001   0.0000
    41 C1'        298.9880    98.3690  -185.2520 C.3          1 FAD2001   0.0000
    42 C2'        299.1090    98.7010  -183.7880 C.3          1 FAD2001   0.0000
    43 O2'        299.4380    97.5860  -183.0680 O.3          1 FAD2001   0.0000
    44 C3'        297.7420    99.1920  -183.3440 C.3          1 FAD2001   0.0000
    45 O3'        296.7720    98.4120  -183.9250 O.3          1 FAD2001   0.0000
    46 C4'        297.4530   100.6330  -183.6890 C.3          1 FAD2001   0.0000
    47 O4'        298.5250   101.2280  -184.3090 O.3          1 FAD2001   0.0000
    48 C5'        297.1420   101.3590  -182.3970 C.3          1 FAD2001   0.0000
    49 O5'        296.6750   102.6420  -182.7060 O.3          1 FAD2001   0.0000
    50 P          297.0980   103.8420  -181.7500 P.3          1 FAD2001   0.0000
    51 O1P        298.3560   103.7250  -180.8060 O.co2        1 FAD2001   0.0000
    52 O2P        297.1720   104.8780  -182.9330 O.co2        1 FAD2001  -1.0000
    53 O3P        295.6640   104.3940  -181.2260 O.3          1 FAD2001   0.0000
    54 H5B1       294.0688   101.4858  -180.8965 H            1 FAD2001   0.0000
    55 H5B2       293.4995   101.8142  -179.4016 H            1 FAD2001   0.0000
    56 H4B        295.8389   100.2168  -179.5504 H            1 FAD2001   0.0000
    57 H3B        293.2888    99.1844  -180.2992 H            1 FAD2001   0.0000
    58 H5         295.2673    97.8437  -181.3163 H            1 FAD2001   0.0000
    59 H2B        293.8031    97.2470  -179.2980 H            1 FAD2001   0.0000
    60 H7         295.7222    96.6575  -180.0132 H            1 FAD2001   0.0000
    61 H1B        295.1320    98.2963  -177.2919 H            1 FAD2001   0.0000
    62 H8A        291.6906    99.2382  -178.5413 H            1 FAD2001   0.0000
    63 H6A1       289.3900    96.8799  -173.3152 H            1 FAD2001   0.0000
    64 H6A2       289.0431    97.6673  -174.8184 H            1 FAD2001   0.0000
    65 H2A        293.9615    96.3473  -173.2286 H            1 FAD2001   0.0000
    66 H13        301.9433    92.9847  -185.3582 H            1 FAD2001   0.0000
    67 H14        303.9843    99.1832  -188.1581 H            1 FAD2001   0.0000
    68 H7M1       303.1695   102.7229  -188.4281 H            1 FAD2001   0.0000
    69 H7M2       304.4954   101.8546  -188.0348 H            1 FAD2001   0.0000
    70 H7M3       303.7194   101.5676  -189.4427 H            1 FAD2001   0.0000
    71 H8M1       300.2455   102.7540  -186.8186 H            1 FAD2001   0.0000
    72 H8M2       301.8149   103.2049  -186.8333 H            1 FAD2001   0.0000
    73 H8M3       301.0354   102.9152  -188.2387 H            1 FAD2001   0.0000
    74 H21        299.8588   100.5475  -186.1580 H            1 FAD2001   0.0000
    75 H1'1       298.3285    97.6248  -185.3580 H            1 FAD2001   0.0000
    76 H1'2       298.6580    99.1785  -185.7376 H            1 FAD2001   0.0000
    77 H2'        299.7946    99.4160  -183.6510 H            1 FAD2001   0.0000
    78 H25        299.5224    96.8036  -183.6851 H            1 FAD2001   0.0000
    79 H3'        297.6772    99.0871  -182.3516 H            1 FAD2001   0.0000
    80 H27        295.9736    98.3703  -183.3243 H            1 FAD2001   0.0000
    81 H4'        296.6566   100.6754  -184.2923 H            1 FAD2001   0.0000
    82 H29        298.3007   102.1787  -184.5231 H            1 FAD2001   0.0000
    83 H5'1       297.9705   101.4270  -181.8411 H            1 FAD2001   0.0000
    84 H5'2       296.4405   100.8584  -181.8899 H            1 FAD2001   0.0000
@<TRIPOS>BOND
     1    1    2      ar
     2    1    3      ar
     3    1    4       1
     4    1   53       1
     5    4    5       1
     6    5    6       1
     7    6    7       1
     8    6    8       1
     9    7   12       1
    10    8    9       1
    11    8   10       1
    12   10   11       1
    13   10   12       1
    14   12   13       1
    15   13   14       1
    16   13   22       1
    17   14   15       2
    18   15   16       1
    19   16   17      ar
    20   16   22      ar
    21   17   18       1
    22   17   19      ar
    23   19   20      ar
    24   20   21      ar
    25   21   22      ar
    26   23   24       1
    27   23   40       2
    28   24   25       2
    29   24   26       1
    30   26   27       1
    31   27   28       2
    32   27   29       1
    33   29   30       2
    34   29   40       1
    35   30   31       1
    36   31   32      ar
    37   31   38      ar
    38   32   33      ar
    39   33   34       1
    40   33   35      ar
    41   35   36       1
    42   35   37      ar
    43   37   38      ar
    44   38   39       1
    45   39   40       1
    46   39   41       1
    47   41   42       1
    48   42   43       1
    49   42   44       1
    50   44   45       1
    51   44   46       1
    52   46   47       1
    53   46   48       1
    54   48   49       1
    55   49   50       1
    56   50   51      ar
    57   50   52      ar
    58   50   53       1
    59   48   84       1
    60    5   54       1
    61    5   55       1
    62    6   56       1
    63    8   57       1
    64    9   58       1
    65   10   59       1
    66   11   60       1
    67   12   61       1
    68   14   62       1
    69   18   63       1
    70   18   64       1
    71   20   65       1
    72   26   66       1
    73   32   67       1
    74   34   68       1
    75   34   69       1
    76   34   70       1
    77   36   71       1
    78   36   72       1
    79   36   73       1
    80   37   74       1
    81   41   75       1
    82   41   76       1
    83   42   77       1
    84   43   78       1
    85   44   79       1
    86   45   80       1
    87   46   81       1
    88   47   82       1
    89   48   83       1
@<TRIPOS>SUBSTRUCTURE
     1 FAD2001     1 GROUP             4 A     FAD     0 **** FAD A2001
