@<TRIPOS>MOLECULE
3gki_CLR_1_ligand
   74    77     1     0     0
SMALL
NO_CHARGES


@<TRIPOS>ATOM
     1 C1         -38.4310   -30.3670     5.9540 C.3          1 CLR253   0.0000
     2 C2         -39.1290   -30.5460     7.3350 C.3          1 CLR253   0.0000
     3 C3         -37.9970   -30.5420     8.3810 C.3          1 CLR253   0.0000
     4 C4         -37.3710   -29.1540     8.4250 C.3          1 CLR253   0.0000
     5 C5         -36.7430   -28.8950     7.0660 C.2          1 CLR253   0.0000
     6 C6         -35.4640   -28.4740     7.0660 C.2          1 CLR253   0.0000
     7 C7         -34.6540   -28.2300     5.8330 C.3          1 CLR253   0.0000
     8 C8         -35.6060   -27.9560     4.6800 C.3          1 CLR253   0.0000
     9 C9         -36.6070   -29.1320     4.5940 C.3          1 CLR253   0.0000
    10 C10        -37.5700   -29.0940     5.8070 C.3          1 CLR253   0.0000
    11 C11        -37.3050   -29.2350     3.2240 C.3          1 CLR253   0.0000
    12 C12        -36.3600   -29.0360     2.0200 C.3          1 CLR253   0.0000
    13 C13        -35.6630   -27.6650     2.1100 C.3          1 CLR253   0.0000
    14 C14        -34.8190   -27.7290     3.3890 C.3          1 CLR253   0.0000
    15 C15        -33.8690   -26.5240     3.3280 C.3          1 CLR253   0.0000
    16 C16        -33.6490   -26.3740     1.8120 C.3          1 CLR253   0.0000
    17 C17        -34.5650   -27.3710     1.0740 C.3          1 CLR253   0.0000
    18 C18        -36.6430   -26.4890     2.0900 C.3          1 CLR253   0.0000
    19 C19        -38.5140   -27.9130     5.6940 C.3          1 CLR253   0.0000
    20 C20        -34.9410   -26.9070    -0.3380 C.3          1 CLR253   0.0000
    21 C21        -36.0670   -27.7270    -0.9620 C.3          1 CLR253   0.0000
    22 C22        -33.7280   -27.0320    -1.2460 C.3          1 CLR253   0.0000
    23 C23        -33.8740   -26.2470    -2.5440 C.3          1 CLR253   0.0000
    24 C24        -34.0680   -24.7650    -2.2590 C.3          1 CLR253   0.0000
    25 C25        -33.7970   -23.9600    -3.5200 C.3          1 CLR253   0.0000
    26 C26        -34.0290   -22.4660    -3.3000 C.3          1 CLR253   0.0000
    27 C27        -32.3760   -24.2340    -3.9750 C.3          1 CLR253   0.0000
    28 O1         -38.4610   -30.8880     9.6920 O.3          1 CLR253   0.0000
    29 H1         -39.1411   -30.3421     5.2504 H            1 CLR253   0.0000
    30 H2         -37.8393   -31.1588     5.8025 H            1 CLR253   0.0000
    31 H3         -39.6268   -31.4128     7.3639 H            1 CLR253   0.0000
    32 H4         -39.7631   -29.7917     7.5051 H            1 CLR253   0.0000
    33 H5         -37.2988   -31.2014     8.1022 H            1 CLR253   0.0000
    34 H6         -36.6705   -29.1175     9.1377 H            1 CLR253   0.0000
    35 H7         -38.0738   -28.4679     8.6130 H            1 CLR253   0.0000
    36 H8         -35.0261   -28.3136     7.9506 H            1 CLR253   0.0000
    37 H9         -34.0990   -29.0363     5.6284 H            1 CLR253   0.0000
    38 H10        -34.0562   -27.4405     5.9723 H            1 CLR253   0.0000
    39 H11        -36.1179   -27.1222     4.8866 H            1 CLR253   0.0000
    40 H12        -36.0655   -29.9667     4.6942 H            1 CLR253   0.0000
    41 H13        -38.0191   -28.5362     3.1818 H            1 CLR253   0.0000
    42 H14        -37.7209   -30.1415     3.1506 H            1 CLR253   0.0000
    43 H15        -36.8900   -29.0819     1.1732 H            1 CLR253   0.0000
    44 H16        -35.6686   -29.7585     2.0201 H            1 CLR253   0.0000
    45 H17        -34.2363   -28.5350     3.2853 H            1 CLR253   0.0000
    46 H18        -33.0100   -26.7130     3.8038 H            1 CLR253   0.0000
    47 H19        -34.2927   -25.7061     3.7172 H            1 CLR253   0.0000
    48 H20        -32.6935   -26.5686     1.5905 H            1 CLR253   0.0000
    49 H21        -33.8730   -25.4408     1.5309 H            1 CLR253   0.0000
    50 H22        -34.0402   -28.2154     0.9668 H            1 CLR253   0.0000
    51 H23        -36.1344   -25.6302     2.1508 H            1 CLR253   0.0000
    52 H24        -37.1672   -26.5064     1.2386 H            1 CLR253   0.0000
    53 H25        -37.2676   -26.5623     2.8675 H            1 CLR253   0.0000
    54 H26        -37.9839   -27.0706     5.5973 H            1 CLR253   0.0000
    55 H27        -39.1013   -28.0311     4.8933 H            1 CLR253   0.0000
    56 H28        -39.0795   -27.8583     6.5169 H            1 CLR253   0.0000
    57 H29        -35.2207   -25.9476    -0.3005 H            1 CLR253   0.0000
    58 H30        -36.2657   -27.3778    -1.8778 H            1 CLR253   0.0000
    59 H31        -35.7868   -28.6849    -1.0241 H            1 CLR253   0.0000
    60 H32        -36.8862   -27.6555    -0.3930 H            1 CLR253   0.0000
    61 H33        -33.5958   -27.9975    -1.4704 H            1 CLR253   0.0000
    62 H34        -32.9260   -26.6909    -0.7556 H            1 CLR253   0.0000
    63 H35        -34.6665   -26.5906    -3.0478 H            1 CLR253   0.0000
    64 H36        -33.0493   -26.3697    -3.0961 H            1 CLR253   0.0000
    65 H37        -33.4346   -24.4793    -1.5399 H            1 CLR253   0.0000
    66 H38        -35.0081   -24.6048    -1.9582 H            1 CLR253   0.0000
    67 H39        -34.4224   -24.2739    -4.2344 H            1 CLR253   0.0000
    68 H40        -33.8414   -21.9711    -4.1484 H            1 CLR253   0.0000
    69 H41        -34.9789   -22.3127    -3.0278 H            1 CLR253   0.0000
    70 H42        -33.4185   -22.1364    -2.5798 H            1 CLR253   0.0000
    71 H43        -32.1848   -23.7098    -4.8048 H            1 CLR253   0.0000
    72 H44        -31.7373   -23.9629    -3.2549 H            1 CLR253   0.0000
    73 H45        -32.2692   -25.2099    -4.1652 H            1 CLR253   0.0000
    74 H46        -39.4122   -30.5975     9.7964 H            1 CLR253   0.0000
@<TRIPOS>BOND
     1    1    2       1
     2    1   10       1
     3    2    3       1
     4    3    4       1
     5    3   28       1
     6    4    5       1
     7    5    6       2
     8    5   10       1
     9    6    7       1
    10    7    8       1
    11    8    9       1
    12    8   14       1
    13    9   10       1
    14    9   11       1
    15   10   19       1
    16   11   12       1
    17   12   13       1
    18   13   14       1
    19   13   17       1
    20   13   18       1
    21   14   15       1
    22   15   16       1
    23   16   17       1
    24   17   20       1
    25   20   21       1
    26   20   22       1
    27   22   23       1
    28   23   24       1
    29   24   25       1
    30   25   26       1
    31   25   27       1
    32    1   29       1
    33    1   30       1
    34    2   31       1
    35    2   32       1
    36    3   33       1
    37    4   34       1
    38    4   35       1
    39    6   36       1
    40    7   37       1
    41    7   38       1
    42    8   39       1
    43    9   40       1
    44   11   41       1
    45   11   42       1
    46   12   43       1
    47   12   44       1
    48   14   45       1
    49   15   46       1
    50   15   47       1
    51   16   48       1
    52   16   49       1
    53   17   50       1
    54   18   51       1
    55   18   52       1
    56   18   53       1
    57   19   54       1
    58   19   55       1
    59   19   56       1
    60   20   57       1
    61   21   58       1
    62   21   59       1
    63   21   60       1
    64   22   61       1
    65   22   62       1
    66   23   63       1
    67   23   64       1
    68   24   65       1
    69   24   66       1
    70   25   67       1
    71   26   68       1
    72   26   69       1
    73   26   70       1
    74   27   71       1
    75   27   72       1
    76   27   73       1
    77   28   74       1
@<TRIPOS>SUBSTRUCTURE
     1 CLR253      1 GROUP             4 A     CLR     0 **** CLR A 253
