@<TRIPOS>MOLECULE
2z4s_ADP_1_ligand
   39    41     1     0     0
SMALL
NO_CHARGES


@<TRIPOS>ATOM
     1 PB         -40.3330   -19.9790    16.4690 P.3          1 ADP501   0.0000
     2 O1B        -41.5190   -20.7740    16.8080 O.co2        1 ADP501   0.0000
     3 O2B        -39.7820   -20.4520    15.0570 O.co2        1 ADP501  -1.0000
     4 O3B        -39.1980   -20.1550    17.6010 O.co2        1 ADP501  -1.0000
     5 PA         -41.2890   -17.8170    17.6860 P.3          1 ADP501   0.0000
     6 O1A        -42.4910   -18.5360    18.1470 O.co2        1 ADP501   0.0000
     7 O2A        -40.1840   -17.8930    18.8430 O.co2        1 ADP501  -1.0000
     8 O3A        -40.6990   -18.4390    16.3120 O.3          1 ADP501   0.0000
     9 O5'        -41.5930   -16.2900    17.3430 O.3          1 ADP501   0.0000
    10 C5'        -42.1170   -15.7630    18.5210 C.3          1 ADP501   0.0000
    11 C4'        -42.4280   -14.2980    18.3800 C.3          1 ADP501   0.0000
    12 O4'        -43.3450   -14.0710    17.3000 O.3          1 ADP501   0.0000
    13 C3'        -43.0310   -13.8770    19.7070 C.3          1 ADP501   0.0000
    14 O3'        -42.2530   -12.8580    20.3420 O.3          1 ADP501   0.0000
    15 C2'        -44.4500   -13.4360    19.3920 C.3          1 ADP501   0.0000
    16 O2'        -44.6730   -12.0810    19.8360 O.3          1 ADP501   0.0000
    17 C1'        -44.5860   -13.5830    17.8550 C.3          1 ADP501   0.0000
    18 N9         -45.7000   -14.4620    17.4650 N.pl3        1 ADP501   0.0000
    19 C8         -45.6180   -15.7130    16.9250 C.2          1 ADP501   0.0000
    20 N7         -46.8060   -16.1840    16.6890 N.2          1 ADP501   0.0000
    21 C5         -47.7190   -15.2680    17.0610 C.ar         1 ADP501   0.0000
    22 C6         -49.1340   -15.1990    17.0460 C.ar         1 ADP501   0.0000
    23 N6         -49.8800   -16.2500    16.5520 N.pl3        1 ADP501   0.0000
    24 N1         -49.7360   -14.0870    17.5170 N.ar         1 ADP501   0.0000
    25 C2         -49.0300   -13.0620    17.9950 C.ar         1 ADP501   0.0000
    26 N3         -47.7000   -13.0890    18.0200 N.ar         1 ADP501   0.0000
    27 C4         -47.0180   -14.1550    17.5720 C.ar         1 ADP501   0.0000
    28 H5'1       -41.4499   -15.8841    19.2560 H            1 ADP501   0.0000
    29 H5'2       -42.9581   -16.2530    18.7501 H            1 ADP501   0.0000
    30 H4'        -41.5831   -13.7885    18.2172 H            1 ADP501   0.0000
    31 H3'        -43.0690   -14.6741    20.3096 H            1 ADP501   0.0000
    32 H5         -41.7994   -12.3022    19.6453 H            1 ADP501   0.0000
    33 H2'        -45.0986   -14.0475    19.8452 H            1 ADP501   0.0000
    34 H7         -43.8381   -11.7265    20.2570 H            1 ADP501   0.0000
    35 H1'        -44.7599   -12.6757    17.4722 H            1 ADP501   0.0000
    36 H9         -44.7642   -16.1986    16.7374 H            1 ADP501   0.0000
    37 H10        -50.8784   -16.1944    16.5445 H            1 ADP501   0.0000
    38 H11        -49.4220   -17.0670    16.2016 H            1 ADP501   0.0000
    39 H12        -49.5100   -12.2562    18.3419 H            1 ADP501   0.0000
@<TRIPOS>BOND
     1    1    2      ar
     2    1    3      ar
     3    1    4      ar
     4    1    8       1
     5    5    6      ar
     6    5    7      ar
     7    5    8       1
     8    5    9       1
     9    9   10       1
    10   10   11       1
    11   11   12       1
    12   11   13       1
    13   12   17       1
    14   13   14       1
    15   13   15       1
    16   15   16       1
    17   15   17       1
    18   17   18       1
    19   18   19       1
    20   18   27       1
    21   19   20       2
    22   20   21       1
    23   21   22      ar
    24   21   27      ar
    25   22   23       1
    26   22   24      ar
    27   24   25      ar
    28   25   26      ar
    29   26   27      ar
    30   25   39       1
    31   23   38       1
    32   23   37       1
    33   10   28       1
    34   10   29       1
    35   11   30       1
    36   13   31       1
    37   14   32       1
    38   15   33       1
    39   16   34       1
    40   17   35       1
    41   19   36       1
@<TRIPOS>SUBSTRUCTURE
     1 ADP501      1 GROUP             4 A     ADP     0 **** ADP A 501
