@<TRIPOS>MOLECULE
4k3n_1OT_8_ligand
   27    28     1     0     0
SMALL
NO_CHARGES


@<TRIPOS>ATOM
     1 O1         104.4930    65.4360   123.4630 O.co2        1 1OT1004   0.0000
     2 P          104.5550    64.6070   124.6860 P.3          1 1OT1004   0.0000
     3 O2         103.2850    64.8910   125.6290 O.co2        1 1OT1004  -1.0000
     4 O3         104.5710    63.0480   124.2530 O.co2        1 1OT1004  -1.0000
     5 C1         106.1010    65.0610   125.5230 C.3          1 1OT1004   0.0000
     6 N1         106.0780    66.4890   125.8070 N.3          1 1OT1004   0.0000
     7 C2         106.2790    64.4250   126.8390 C.ar         1 1OT1004   0.0000
     8 C10        107.5650    64.3110   127.3350 C.ar         1 1OT1004   0.0000
     9 C9         107.7660    63.7340   128.5770 C.ar         1 1OT1004   0.0000
    10 C5         106.7230    63.2650   129.3740 C.ar         1 1OT1004   0.0000
    11 C4         105.4320    63.3980   128.8480 C.ar         1 1OT1004   0.0000
    12 C3         105.2110    63.9760   127.6040 C.ar         1 1OT1004   0.0000
    13 N2         106.9670    62.7220   130.5660 N.pl3        1 1OT1004   0.0000
    14 N3         105.9590    62.2370   131.3940 N.2          1 1OT1004   0.0000
    15 C8         106.6460    61.7860   132.4670 C.2          1 1OT1004   0.0000
    16 C7         108.0040    62.0120   132.2690 C.2          1 1OT1004   0.0000
    17 C6         108.2020    62.6070   131.0410 C.2          1 1OT1004   0.0000
    18 H1         106.8804    64.8454   124.9347 H            1 1OT1004   0.0000
    19 H2         105.6712    66.6433   126.7074 H            1 1OT1004   0.0000
    20 H3         108.3428    64.6425   126.8010 H            1 1OT1004   0.0000
    21 H4         108.7022    63.6498   128.9181 H            1 1OT1004   0.0000
    22 H5         104.6514    63.0695   129.3798 H            1 1OT1004   0.0000
    23 H6         104.2775    64.0691   127.2578 H            1 1OT1004   0.0000
    24 H7         106.2419    61.3577   133.2752 H            1 1OT1004   0.0000
    25 H8         108.7273    61.7784   132.9188 H            1 1OT1004   0.0000
    26 H9         109.0627    62.8836   130.6136 H            1 1OT1004   0.0000
    27 H10        107.0121    66.8458   125.7977 H            1 1OT1004   0.0000
@<TRIPOS>BOND
     1    1    2      ar
     2    2    3      ar
     3    2    4      ar
     4    2    5       1
     5    5    6       1
     6    5    7       1
     7    7    8      ar
     8    7   12      ar
     9    8    9      ar
    10    9   10      ar
    11   10   11      ar
    12   10   13       1
    13   11   12      ar
    14   13   14       1
    15   13   17       1
    16   14   15       2
    17   15   16       1
    18   16   17       2
    19   17   26       1
    20   16   25       1
    21    5   18       1
    22    6   27       1
    23    6   19       1
    24    8   20       1
    25    9   21       1
    26   11   22       1
    27   12   23       1
    28   15   24       1
@<TRIPOS>SUBSTRUCTURE
     1 1OT1004     1 GROUP             4 H     1OT     0 **** 1OT H1004
