@<TRIPOS>MOLECULE
4f0r_MTA_1_ligand
   35    37     1     0     0
SMALL
NO_CHARGES


@<TRIPOS>ATOM
     1 CS          -0.1880    24.4300    17.3800 C.3          1 MTA503   0.0000
     2 S5'          0.7530    22.9920    17.0560 S.3          1 MTA503   0.0000
     3 C5'          0.3800    21.8800    18.3960 C.3          1 MTA503   0.0000
     4 C4'          1.0370    22.3710    19.6710 C.3          1 MTA503   0.0000
     5 O4'          0.3060    21.8730    20.8430 O.3          1 MTA503   0.0000
     6 C2'          2.1050    20.4220    20.3570 C.3          1 MTA503   0.0000
     7 O2'          3.2470    19.8160    20.9220 O.3          1 MTA503   0.0000
     8 C3'          2.4230    21.7610    19.7390 C.3          1 MTA503   0.0000
     9 O3'          3.2200    22.5200    20.6630 O.3          1 MTA503   0.0000
    10 C1'          1.0500    20.7760    21.4020 C.3          1 MTA503   0.0000
    11 N9           0.1500    19.6400    21.6610 N.pl3        1 MTA503   0.0000
    12 C8          -0.7000    19.0570    20.7680 C.2          1 MTA503   0.0000
    13 N7          -1.4170    18.0540    21.3750 N.2          1 MTA503   0.0000
    14 C5          -1.0070    17.9920    22.6630 C.ar         1 MTA503   0.0000
    15 C6          -1.3360    17.1620    23.8590 C.ar         1 MTA503   0.0000
    16 N6          -2.2630    16.1840    23.7970 N.pl3        1 MTA503   0.0000
    17 N1          -0.6830    17.4320    25.0190 N.ar         1 MTA503   0.0000
    18 C2           0.2460    18.4060    25.1160 C.ar         1 MTA503   0.0000
    19 N3           0.5670    19.2220    24.0880 N.ar         1 MTA503   0.0000
    20 C4          -0.0120    19.0540    22.8550 C.ar         1 MTA503   0.0000
    21 HS1         -0.0254    25.1041    16.6595 H            1 MTA503   0.0000
    22 HS2         -1.1596    24.1944    17.4030 H            1 MTA503   0.0000
    23 HS3          0.0829    24.8138    18.2628 H            1 MTA503   0.0000
    24 H5'1         0.7245    20.9675    18.1755 H            1 MTA503   0.0000
    25 H5'2        -0.6105    21.8396    18.5276 H            1 MTA503   0.0000
    26 H4'          1.0878    23.3696    19.6823 H            1 MTA503   0.0000
    27 H2'          1.7077    19.8170    19.6670 H            1 MTA503   0.0000
    28 H8           3.6201    20.4086    21.6359 H            1 MTA503   0.0000
    29 H3'          2.8514    21.6777    18.8393 H            1 MTA503   0.0000
    30 H10          4.1372    22.1249    20.7148 H            1 MTA503   0.0000
    31 H1'          1.4931    21.0615    22.2518 H            1 MTA503   0.0000
    32 H12         -0.7889    19.3218    19.8078 H            1 MTA503   0.0000
    33 H13         -2.4695    15.6386    24.6093 H            1 MTA503   0.0000
    34 H14         -2.7437    16.0044    22.9387 H            1 MTA503   0.0000
    35 H15          0.7185    18.5295    25.9887 H            1 MTA503   0.0000
@<TRIPOS>BOND
     1    1    2       1
     2    2    3       1
     3    3    4       1
     4    4    5       1
     5    4    8       1
     6    5   10       1
     7    6    7       1
     8    6    8       1
     9    6   10       1
    10    8    9       1
    11   10   11       1
    12   11   12       1
    13   11   20       1
    14   12   13       2
    15   13   14       1
    16   14   15      ar
    17   14   20      ar
    18   15   16       1
    19   15   17      ar
    20   17   18      ar
    21   18   19      ar
    22   19   20      ar
    23    1   21       1
    24    1   22       1
    25    1   23       1
    26    3   24       1
    27    3   25       1
    28    4   26       1
    29    6   27       1
    30    7   28       1
    31    8   29       1
    32    9   30       1
    33   10   31       1
    34   12   32       1
    35   16   33       1
    36   16   34       1
    37   18   35       1
@<TRIPOS>SUBSTRUCTURE
     1 MTA503      1 GROUP             4 A     MTA     0 **** MTA A 503
