@<TRIPOS>MOLECULE
1u8x_NAD_1_ligand
   70    74     1     0     0
SMALL
NO_CHARGES


@<TRIPOS>ATOM
     1 PA          27.0880    80.6660    23.1430 P.3          1 NAD900   0.0000
     2 O1A         27.7940    80.7280    24.4420 O.co2        1 NAD900   0.0000
     3 O2A         27.6810    79.8810    22.0310 O.co2        1 NAD900  -1.0000
     4 O5B         25.5990    80.0850    23.3210 O.3          1 NAD900   0.0000
     5 C5B         25.0300    79.3270    22.2690 C.3          1 NAD900   0.0000
     6 C4B         24.5250    77.9580    22.6950 C.3          1 NAD900   0.0000
     7 O4B         23.5160    77.5530    21.7400 O.3          1 NAD900   0.0000
     8 C3B         25.6530    76.9260    22.5960 C.3          1 NAD900   0.0000
     9 O3B         25.7440    76.2350    23.8300 O.3          1 NAD900   0.0000
    10 C2B         25.1710    75.9360    21.5520 C.3          1 NAD900   0.0000
    11 O2B         25.5150    74.5950    21.9310 O.3          1 NAD900   0.0000
    12 C1B         23.6580    76.1440    21.5610 C.3          1 NAD900   0.0000
    13 N9A         23.1460    75.7590    20.2240 N.pl3        1 NAD900   0.0000
    14 C8A         23.7150    76.0860    19.0640 C.2          1 NAD900   0.0000
    15 N7A         23.0130    75.5710    18.0590 N.2          1 NAD900   0.0000
    16 C5A         21.9890    74.9110    18.5810 C.ar         1 NAD900   0.0000
    17 C6A         20.9440    74.1900    18.0290 C.ar         1 NAD900   0.0000
    18 N6A         20.8570    74.0730    16.7120 N.pl3        1 NAD900   0.0000
    19 N1A         20.0340    73.6180    18.8370 N.ar         1 NAD900   0.0000
    20 C2A         20.1360    73.7440    20.1500 C.ar         1 NAD900   0.0000
    21 N3A         21.1250    74.4290    20.7080 N.ar         1 NAD900   0.0000
    22 C4A         22.0680    75.0240    19.9550 C.ar         1 NAD900   0.0000
    23 O3          26.8240    82.1700    22.6790 O.3          1 NAD900   0.0000
    24 PN          26.4520    83.4010    23.6530 P.3          1 NAD900   0.0000
    25 O1N         26.0100    82.9340    24.9760 O.co2        1 NAD900   0.0000
    26 O2N         27.5330    84.4040    23.5920 O.co2        1 NAD900  -1.0000
    27 O5D         25.1900    84.0000    22.8600 O.3          1 NAD900   0.0000
    28 C5D         24.0020    83.2410    22.7030 C.3          1 NAD900   0.0000
    29 C4D         23.0280    83.8850    21.6800 C.3          1 NAD900   0.0000
    30 O4D         22.5260    85.0910    22.2750 O.3          1 NAD900   0.0000
    31 C3D         23.7060    84.2820    20.3620 C.3          1 NAD900   0.0000
    32 O3D         22.7960    84.0720    19.2810 O.3          1 NAD900   0.0000
    33 C2D         23.9550    85.7620    20.5830 C.3          1 NAD900   0.0000
    34 O2D         24.0630    86.4520    19.3350 O.3          1 NAD900   0.0000
    35 C1D         22.6400    86.0860    21.2690 C.3          1 NAD900   0.0000
    36 N1N         22.5690    87.4010    21.8930 N.ar         1 NAD900   1.0000
    37 C2N         21.5540    88.2150    21.4510 C.ar         1 NAD900   0.0000
    38 C3N         21.3980    89.4730    21.9790 C.ar         1 NAD900   0.0000
    39 C7N         20.2690    90.3210    21.4440 C.2          1 NAD900   0.0000
    40 O7N         19.9950    91.4900    22.0270 O.2          1 NAD900   0.0000
    41 N7N         19.5920    89.8520    20.3990 N.am         1 NAD900   0.0000
    42 C4N         22.2640    89.9340    22.9670 C.ar         1 NAD900   0.0000
    43 C5N         23.2940    89.1060    23.4200 C.ar         1 NAD900   0.0000
    44 C6N         23.4520    87.8300    22.8880 C.ar         1 NAD900   0.0000
    45 H5B1        25.7254    79.1994    21.5618 H            1 NAD900   0.0000
    46 H5B2        24.2607    79.8421    21.8909 H            1 NAD900   0.0000
    47 H4B         24.1488    77.9883    23.6210 H            1 NAD900   0.0000
    48 H3B         26.5228    77.3468    22.3384 H            1 NAD900   0.0000
    49 H5          24.8768    75.7741    24.0187 H            1 NAD900   0.0000
    50 H2B         25.5518    76.1572    20.6542 H            1 NAD900   0.0000
    51 H7          24.7740    74.2020    22.4754 H            1 NAD900   0.0000
    52 H1B         23.2144    75.6278    22.2937 H            1 NAD900   0.0000
    53 H8A         24.5445    76.6356    18.9645 H            1 NAD900   0.0000
    54 H6A1        20.1055    73.5540    16.3047 H            1 NAD900   0.0000
    55 H6A2        21.5429    74.5037    16.1254 H            1 NAD900   0.0000
    56 H2A         19.4505    73.3121    20.7361 H            1 NAD900   0.0000
    57 H5D1        23.5422    83.1751    23.5885 H            1 NAD900   0.0000
    58 H5D2        24.2446    82.3247    22.3844 H            1 NAD900   0.0000
    59 H4D         22.2704    83.2591    21.4949 H            1 NAD900   0.0000
    60 H3D         24.5613    83.7825    20.2242 H            1 NAD900   0.0000
    61 H17         22.1801    83.3168    19.5056 H            1 NAD900   0.0000
    62 H2D         24.7423    85.9285    21.1766 H            1 NAD900   0.0000
    63 H19         24.9627    86.8836    19.2695 H            1 NAD900   0.0000
    64 H1D         21.8898    85.9864    20.6153 H            1 NAD900   0.0000
    65 H2N         20.9271    87.8903    20.7428 H            1 NAD900   0.0000
    66 H7N1        18.8368    90.3822    20.0137 H            1 NAD900   0.0000
    67 H7N2        19.8384    88.9693    19.9989 H            1 NAD900   0.0000
    68 H4N         22.1496    90.8509    23.3494 H            1 NAD900   0.0000
    69 H5N         23.9198    89.4314    24.1289 H            1 NAD900   0.0000
    70 H6N         24.1841    87.2307    23.2117 H            1 NAD900   0.0000
@<TRIPOS>BOND
     1    1    2      ar
     2    1    3      ar
     3    1    4       1
     4    1   23       1
     5    4    5       1
     6    5    6       1
     7    6    7       1
     8    6    8       1
     9    7   12       1
    10    8    9       1
    11    8   10       1
    12   10   11       1
    13   10   12       1
    14   12   13       1
    15   13   14       1
    16   13   22       1
    17   14   15       2
    18   15   16       1
    19   16   17      ar
    20   16   22      ar
    21   17   18       1
    22   17   19      ar
    23   19   20      ar
    24   20   21      ar
    25   21   22      ar
    26   23   24       1
    27   24   25      ar
    28   24   26      ar
    29   24   27       1
    30   27   28       1
    31   28   29       1
    32   29   30       1
    33   29   31       1
    34   30   35       1
    35   31   32       1
    36   31   33       1
    37   33   34       1
    38   33   35       1
    39   35   36       1
    40   36   37      ar
    41   36   44      ar
    42   37   38      ar
    43   38   39       1
    44   38   42      ar
    45   39   40       2
    46   39   41      am
    47   42   43      ar
    48   43   44      ar
    49   44   70       1
    50    5   45       1
    51    5   46       1
    52    6   47       1
    53    8   48       1
    54    9   49       1
    55   10   50       1
    56   11   51       1
    57   12   52       1
    58   14   53       1
    59   18   54       1
    60   18   55       1
    61   20   56       1
    62   43   69       1
    63   28   57       1
    64   28   58       1
    65   29   59       1
    66   31   60       1
    67   32   61       1
    68   33   62       1
    69   34   63       1
    70   35   64       1
    71   37   65       1
    72   41   66       1
    73   41   67       1
    74   42   68       1
@<TRIPOS>SUBSTRUCTURE
     1 NAD900      1 GROUP             4 X     NAD     0 **** NAD X 900
