@<TRIPOS>MOLECULE
2zpa_ADP_2_ligand
   39    41     1     0     0
SMALL
NO_CHARGES


@<TRIPOS>ATOM
     1 PB          34.9740    77.5110   110.4480 P.3          1 ADP800   0.0000
     2 O1B         35.7290    77.5280   111.7030 O.co2        1 ADP800   0.0000
     3 O2B         35.3130    76.2470   109.5390 O.co2        1 ADP800  -1.0000
     4 O3B         33.4400    77.5120   110.8370 O.co2        1 ADP800  -1.0000
     5 PA          36.7610    79.1900   109.4150 P.3          1 ADP800   0.0000
     6 O1A         36.9980    80.3570   110.2740 O.co2        1 ADP800   0.0000
     7 O2A         37.8270    78.1790   110.0180 O.co2        1 ADP800  -1.0000
     8 O3A         35.1910    78.8980   109.6340 O.3          1 ADP800   0.0000
     9 O5'         37.2610    79.6380   107.9930 O.3          1 ADP800   0.0000
    10 C5'         36.3040    80.3680   107.2320 C.3          1 ADP800   0.0000
    11 C4'         37.0510    80.8530   105.9640 C.3          1 ADP800   0.0000
    12 O4'         37.0400    82.2670   105.7520 O.3          1 ADP800   0.0000
    13 C3'         38.5350    80.4210   105.9560 C.3          1 ADP800   0.0000
    14 O3'         39.0190    80.2870   104.6330 O.3          1 ADP800   0.0000
    15 C2'         39.1550    81.6250   106.7440 C.3          1 ADP800   0.0000
    16 O2'         40.5450    81.8010   106.4680 O.3          1 ADP800   0.0000
    17 C1'         38.3250    82.8110   106.1620 C.3          1 ADP800   0.0000
    18 N9          38.0010    83.8840   107.1020 N.pl3        1 ADP800   0.0000
    19 C8          37.2960    83.7700   108.2660 C.2          1 ADP800   0.0000
    20 N7          37.1730    84.9210   108.8380 N.2          1 ADP800   0.0000
    21 C5          37.7860    85.8560   108.0860 C.ar         1 ADP800   0.0000
    22 C6          37.9750    87.2540   108.1900 C.ar         1 ADP800   0.0000
    23 N6          37.4560    87.9370   109.2770 N.pl3        1 ADP800   0.0000
    24 N1          38.6610    87.8940   107.2210 N.ar         1 ADP800   0.0000
    25 C2          39.1620    87.2370   106.1660 C.ar         1 ADP800   0.0000
    26 N3          39.0080    85.9190   106.0250 N.ar         1 ADP800   0.0000
    27 C4          38.3310    85.1980   106.9540 C.ar         1 ADP800   0.0000
    28 H5'1        35.9652    81.1492   107.7564 H            1 ADP800   0.0000
    29 H5'2        35.5370    79.7781   106.9796 H            1 ADP800   0.0000
    30 H4'         36.6098    80.4272   105.1740 H            1 ADP800   0.0000
    31 H3'         38.6563    79.5680   106.4635 H            1 ADP800   0.0000
    32 H5          39.9789    80.0074   104.6559 H            1 ADP800   0.0000
    33 H2'         38.9964    81.5274   107.7265 H            1 ADP800   0.0000
    34 H7          40.8932    82.5781   106.9923 H            1 ADP800   0.0000
    35 H1'         38.7968    83.1925   105.3671 H            1 ADP800   0.0000
    36 H9          36.9261    82.9134   108.6257 H            1 ADP800   0.0000
    37 H10         37.5867    88.9253   109.3554 H            1 ADP800   0.0000
    38 H11         36.9504    87.4419   109.9836 H            1 ADP800   0.0000
    39 H12         39.6636    87.7469   105.4672 H            1 ADP800   0.0000
@<TRIPOS>BOND
     1    1    2      ar
     2    1    3      ar
     3    1    4      ar
     4    1    8       1
     5    5    6      ar
     6    5    7      ar
     7    5    8       1
     8    5    9       1
     9    9   10       1
    10   10   11       1
    11   11   12       1
    12   11   13       1
    13   12   17       1
    14   13   14       1
    15   13   15       1
    16   15   16       1
    17   15   17       1
    18   17   18       1
    19   18   19       1
    20   18   27       1
    21   19   20       2
    22   20   21       1
    23   21   22      ar
    24   21   27      ar
    25   22   23       1
    26   22   24      ar
    27   24   25      ar
    28   25   26      ar
    29   26   27      ar
    30   25   39       1
    31   23   38       1
    32   23   37       1
    33   10   28       1
    34   10   29       1
    35   11   30       1
    36   13   31       1
    37   14   32       1
    38   15   33       1
    39   16   34       1
    40   17   35       1
    41   19   36       1
@<TRIPOS>SUBSTRUCTURE
     1 ADP800      1 GROUP             4 A     ADP     0 **** ADP A 800
