@<TRIPOS>MOLECULE
./coach420/2gwh/ligand.pdb
 38 40 0 0 0
SMALL
GASTEIGER

@<TRIPOS>ATOM
      1  P1         4.4910   26.1030   31.2030 P.3   401  A3P401      0.5327
      2  O1P        5.6060   26.0040   32.2140 O.3   401  A3P401     -0.1145
      3  O2P        3.6170   24.8800   30.9960 O.2   401  A3P401     -0.2224
      4  O3P        3.6800   27.3800   31.2950 O.3   401  A3P401     -0.1145
      5  P2        10.5910   26.0330   26.5440 P.3   401  A3P401      0.5327
      6  O4P       11.4360   25.6650   27.7270 O.3   401  A3P401     -0.1145
      7  O5P       10.2960   24.9450   25.5890 O.2   401  A3P401     -0.2224
      8  O6P       10.9330   27.3770   25.9260 O.3   401  A3P401     -0.1145
      9  O5'        9.1270   26.3970   27.1140 O.3   401  A3P401     -0.2675
     10  C5'        8.4080   25.4750   27.9880 C.3   401  A3P401      0.1858
     11  C4'        6.9900   26.0340   28.1540 C.3   401  A3P401      0.1776
     12  O4'        6.1970   25.8740   26.9590 O.3   401  A3P401     -0.3307
     13  C3'        6.2470   25.3120   29.2570 C.3   401  A3P401      0.1904
     14  O3'        5.2420   26.2310   29.7690 O.3   401  A3P401     -0.2674
     15  C2'        5.6440   24.1560   28.4860 C.3   401  A3P401      0.2310
     16  O2'        4.5640   23.5010   29.1450 O.3   401  A3P401     -0.2156
     17  C1'        5.1740   24.8730   27.2320 C.3   401  A3P401      0.2408
     18  N9         4.8630   23.9570   26.1160 N.ar  401  A3P401     -0.2693
     19  C8         5.5880   22.8980   25.6670 C.ar  401  A3P401      0.1816
     20  N7         4.9550   22.3230   24.6080 N.ar  401  A3P401     -0.2193
     21  C5         3.8310   23.0430   24.3700 C.ar  401  A3P401      0.1518
     22  C6         2.6960   22.9650   23.4200 C.ar  401  A3P401      0.1919
     23  N6         2.6740   22.0050   22.4690 N.pl3 401  A3P401     -0.1054
     24  N1         1.7090   23.9060   23.5120 N.ar  401  A3P401     -0.2040
     25  C2         1.7470   24.8740   24.4640 C.ar  401  A3P401      0.2016
     26  N3         2.7360   24.9690   25.3720 N.ar  401  A3P401     -0.2048
     27  C4         3.7860   24.0980   25.3650 C.ar  401  A3P401      0.1692
     28  C1        16.6080   24.8150   28.5840 C.ar  402  PCI402      0.0245
     29  C2        17.4380   25.3960   29.5200 C.ar  402  PCI402      0.0699
     30 CL1        17.4070   27.1020   29.6830 Cl    402  PCI402     -0.0813
     31  C3        18.2710   24.5880   30.2920 C.ar  402  PCI402      0.0796
     32 CL2        19.2850   25.2870   31.4580 Cl    402  PCI402     -0.0805
     33  C4        18.2690   23.1990   30.1300 C.ar  402  PCI402      0.0804
     34 CL3        19.2800   22.1430   31.0470 Cl    402  PCI402     -0.0804
     35  C5        17.4370   22.6400   29.2110 C.ar  402  PCI402      0.0796
     36 CL4        17.4300   20.9420   28.9750 Cl    402  PCI402     -0.0805
     37  C6        16.6110   23.4310   28.4490 C.ar  402  PCI402      0.0699
     38 CL5        15.5690   22.6590   27.3620 Cl    402  PCI402     -0.0813
@<TRIPOS>BOND
     1     1    14    1
     2     1     3    2
     3     1     4    1
     4     1     2    1
     5     5     7    2
     6     5     8    1
     7     5     9    1
     8     5     6    1
     9     9    10    1
    10    10    11    1
    11    11    12    1
    12    11    13    1
    13    12    17    1
    14    13    15    1
    15    13    14    1
    16    15    17    1
    17    15    16    1
    18    17    18    1
    19    18    27   ar
    20    18    19   ar
    21    19    20   ar
    22    20    21   ar
    23    21    22   ar
    24    21    27   ar
    25    22    23    1
    26    22    24   ar
    27    24    25   ar
    28    25    26   ar
    29    26    27   ar
    30    28    37   ar
    31    28    29   ar
    32    29    30    1
    33    29    31   ar
    34    31    33   ar
    35    31    32    1
    36    33    35   ar
    37    33    34    1
    38    35    37   ar
    39    35    36    1
    40    37    38    1
