@<TRIPOS>MOLECULE
./coach420/3dzl/ligand.pdb
 19 18 0 0 0
SMALL
GASTEIGER

@<TRIPOS>ATOM
      1  CAF       26.6970   17.4430   74.3490 C.3   500  3OC500      0.0121
      2  CAD       26.8500   17.5870   75.8890 C.3   500  3OC500      0.0083
      3  CAE       27.7570   16.5910   76.5410 C.3   500  3OC500      0.0645
      4  CAH       27.5270   15.2660   76.1550 C.2   500  3OC500      0.1512
      5  OAA       27.7720   14.3940   76.9900 O.2   500  3OC500     -0.2960
      6  CAG       27.1750   14.9700   74.7240 C.3   500  3OC500      0.0757
      7  CAJ       26.2370   16.0280   74.0920 C.3   500  3OC500      0.1107
      8  CAI       25.9050   15.6520   72.6540 C.2   500  3OC500      0.3647
      9  OAC       24.7680   15.9670   72.2090 O.co2 500  3OC500     -0.2457
     10  OAB       26.7410   15.0430   72.0700 O.co2 500  3OC500     -0.2457
     11  CAD       21.6870   12.1480   77.0840 C.3   600  3OC600      0.0082
     12  CAE       22.8610   11.9050   76.0510 C.3   600  3OC600      0.0645
     13  CAH       23.5970   13.2790   75.9440 C.2   600  3OC600      0.1512
     14  OAA       23.4680   13.9980   74.9260 O.2   600  3OC600     -0.2960
     15  CAG       24.2840   13.7710   77.2230 C.3   600  3OC600      0.0763
     16  CAJ       23.1720   13.8240   78.3820 C.3   600  3OC600      0.1218
     17  CAI       23.7470   14.2170   79.7110 C.2   600  3OC600      0.3653
     18  OAC       23.0270   14.3540   80.7020 O.co2 600  3OC600     -0.2456
     19  OAB       24.9350   14.3680   79.7620 O.co2 600  3OC600     -0.2456
@<TRIPOS>BOND
     1     1     7    1
     2     1     2    1
     3     2     3    1
     4     3     4    1
     5     4     6    1
     6     4     5    2
     7     6     7    1
     8     7     8    1
     9     8    10   ar
    10     8     9   ar
    11    11    12    1
    12    12    13    1
    13    13    14    2
    14    13    15    1
    15    15    16    1
    16    16    17    1
    17    17    19   ar
    18    17    18   ar
