@<TRIPOS>MOLECULE
2doo_C4H_1_ligand
   53    54     1     0     0
SMALL
NO_CHARGES


@<TRIPOS>ATOM
     1 C1          29.6070    45.8040    33.4710 C.ar         1 C4H601   0.0000
     2 C2          28.8450    44.6830    32.9420 C.ar         1 C4H601   0.0000
     3 C3          30.2050    46.9530    32.6940 C.ar         1 C4H601   0.0000
     4 N4          30.1240    47.1320    31.1460 N.pl3        1 C4H601   0.0000
     5 C5          28.9900    47.7580    30.8110 C.3          1 C4H601   0.0000
     6 C6          30.3060    46.1350    30.4870 C.3          1 C4H601   0.0000
     7 C7          30.9150    47.9550    33.4300 C.ar         1 C4H601   0.0000
     8 C8          31.0680    47.9150    34.8450 C.ar         1 C4H601   0.0000
     9 C9          30.5070    46.8380    35.5810 C.ar         1 C4H601   0.0000
    10 C10         29.7670    45.7720    34.9400 C.ar         1 C4H601   0.0000
    11 C11         29.2020    44.6540    35.7550 C.ar         1 C4H601   0.0000
    12 C12         28.4680    43.6060    35.1070 C.ar         1 C4H601   0.0000
    13 C13         28.3030    43.6310    33.7190 C.ar         1 C4H601   0.0000
    14 S14         29.4140    44.6000    37.5190 S.o2         1 C4H601   0.0000
    15 N15         30.8320    44.4080    37.9770 N.3          1 C4H601   0.0000
    16 C16         31.8760    43.8390    37.0940 C.3          1 C4H601   0.0000
    17 C17         32.5270    42.5660    37.7580 C.3          1 C4H601   0.0000
    18 C18         33.0550    42.9310    39.2220 C.3          1 C4H601   0.0000
    19 C19         33.7680    41.7850    39.9060 C.3          1 C4H601   0.0000
    20 N20         33.9520    42.0030    41.3800 N.am         1 C4H601   0.0000
    21 C21         33.1670    41.1300    42.3080 C.2          1 C4H601   0.0000
    22 O22         32.4080    40.2780    41.8450 O.2          1 C4H601   0.0000
    23 C23         33.3510    41.3770    43.8440 C.3          1 C4H601   0.0000
    24 C24         32.1730    40.9190    44.6920 C.3          1 C4H601   0.0000
    25 S25         30.6760    41.9520    44.8060 S.3          1 C4H601  -1.0000
    26 O26         28.5580    43.5070    38.1010 O.2          1 C4H601   0.0000
    27 O27         29.0090    45.9080    38.0760 O.2          1 C4H601   0.0000
    28 H1          28.6925    44.6534    31.9541 H            1 C4H601   0.0000
    29 H2          28.9501    47.8665    29.8177 H            1 C4H601   0.0000
    30 H3          28.2072    47.2172    31.1190 H            1 C4H601   0.0000
    31 H4          28.9651    48.6581    31.2459 H            1 C4H601   0.0000
    32 H5          30.2325    46.3597    29.5153 H            1 C4H601   0.0000
    33 H6          31.2181    45.7717    30.6771 H            1 C4H601   0.0000
    34 H7          29.6180    45.4489    30.7235 H            1 C4H601   0.0000
    35 H8          31.3220    48.7177    32.9274 H            1 C4H601   0.0000
    36 H9          31.5675    48.6410    35.3177 H            1 C4H601   0.0000
    37 H10         30.6270    46.8153    36.5735 H            1 C4H601   0.0000
    38 H11         28.0758    42.8604    35.6458 H            1 C4H601   0.0000
    39 H12         27.7955    42.8962    33.2691 H            1 C4H601   0.0000
    40 H13         30.7882    43.8109    38.7780 H            1 C4H601   0.0000
    41 H14         32.5846    44.5268    36.9366 H            1 C4H601   0.0000
    42 H15         31.4631    43.5799    36.2208 H            1 C4H601   0.0000
    43 H16         33.2934    42.2537    37.1967 H            1 C4H601   0.0000
    44 H17         31.8435    41.8390    37.8230 H            1 C4H601   0.0000
    45 H18         32.2722    43.1980    39.7840 H            1 C4H601   0.0000
    46 H19         33.6897    43.7001    39.1476 H            1 C4H601   0.0000
    47 H20         34.6685    41.6740    39.4857 H            1 C4H601   0.0000
    48 H21         33.2324    40.9512    39.7718 H            1 C4H601   0.0000
    49 H22         34.5746    42.7039    41.7280 H            1 C4H601   0.0000
    50 H23         33.4815    42.3575    43.9911 H            1 C4H601   0.0000
    51 H24         34.1664    40.8831    44.1461 H            1 C4H601   0.0000
    52 H25         32.5159    40.8038    45.6243 H            1 C4H601   0.0000
    53 H26         31.8849    40.0321    44.3309 H            1 C4H601   0.0000
@<TRIPOS>BOND
     1    1    2      ar
     2    1    3      ar
     3    1   10      ar
     4    2   13      ar
     5    3    4       1
     6    3    7      ar
     7    4    5       1
     8    4    6       1
     9    7    8      ar
    10    8    9      ar
    11    9   10      ar
    12   10   11      ar
    13   11   12      ar
    14   11   14       1
    15   12   13      ar
    16   14   15       1
    17   14   26       2
    18   14   27       2
    19   15   16       1
    20   16   17       1
    21   17   18       1
    22   18   19       1
    23   19   20       1
    24   20   21      am
    25   21   22       2
    26   21   23       1
    27   23   24       1
    28   24   25       1
    29    2   28       1
    30    5   29       1
    31    5   30       1
    32    5   31       1
    33    6   32       1
    34    6   33       1
    35    6   34       1
    36    7   35       1
    37    8   36       1
    38    9   37       1
    39   12   38       1
    40   13   39       1
    41   15   40       1
    42   16   41       1
    43   16   42       1
    44   17   43       1
    45   17   44       1
    46   18   45       1
    47   18   46       1
    48   19   47       1
    49   19   48       1
    50   20   49       1
    51   23   50       1
    52   23   51       1
    53   24   52       1
    54   24   53       1
@<TRIPOS>SUBSTRUCTURE
     1 C4H601      1 GROUP             4 A     C4H     0 **** C4H A 601
