@<TRIPOS>MOLECULE
1svl_ADP_1_ligand
   39    41     1     0     0
SMALL
NO_CHARGES


@<TRIPOS>ATOM
     1 PB          32.7920    42.6260    75.3970 P.3          1 ADP800   0.0000
     2 O1B         32.8210    42.1940    76.8120 O.co2        1 ADP800   0.0000
     3 O2B         33.9490    43.6650    75.0730 O.co2        1 ADP800  -1.0000
     4 O3B         32.8970    41.4360    74.4950 O.co2        1 ADP800  -1.0000
     5 PA          31.0250    44.9510    75.1690 P.3          1 ADP800   0.0000
     6 O1A         31.3260    45.5690    76.4690 O.co2        1 ADP800   0.0000
     7 O2A         31.7060    45.6860    74.1080 O.co2        1 ADP800  -1.0000
     8 O3A         31.4580    43.4140    75.1370 O.3          1 ADP800   0.0000
     9 O5'         29.4840    45.0150    74.8600 O.3          1 ADP800   0.0000
    10 C5'         28.6530    43.8870    74.5820 C.3          1 ADP800   0.0000
    11 C4'         27.2150    44.3920    74.3510 C.3          1 ADP800   0.0000
    12 O4'         26.4090    43.4600    75.0800 O.3          1 ADP800   0.0000
    13 C3'         26.8960    45.7750    74.9450 C.3          1 ADP800   0.0000
    14 O3'         26.7750    46.8080    73.9380 O.3          1 ADP800   0.0000
    15 C2'         25.6090    45.5990    75.7290 C.3          1 ADP800   0.0000
    16 O2'         24.4750    46.0660    74.9620 O.3          1 ADP800   0.0000
    17 C1'         25.6060    44.1070    76.0820 C.3          1 ADP800   0.0000
    18 N9          26.2150    43.7370    77.4310 N.pl3        1 ADP800   0.0000
    19 C8          27.2900    44.3480    78.0270 C.2          1 ADP800   0.0000
    20 N7          27.5490    43.7580    79.1940 N.2          1 ADP800   0.0000
    21 C5          26.6820    42.7890    79.3820 C.ar         1 ADP800   0.0000
    22 C6          26.4410    41.8250    80.3800 C.ar         1 ADP800   0.0000
    23 N6          27.2080    41.7690    81.4880 N.pl3        1 ADP800   0.0000
    24 N1          25.4090    40.9370    80.2250 N.ar         1 ADP800   0.0000
    25 C2          24.5990    40.9450    79.1300 C.ar         1 ADP800   0.0000
    26 N3          24.8120    41.8520    78.1670 N.ar         1 ADP800   0.0000
    27 C4          25.8150    42.7680    78.2380 C.ar         1 ADP800   0.0000
    28 H5'1        28.6694    43.2555    75.3572 H            1 ADP800   0.0000
    29 H5'2        28.9825    43.4177    73.7627 H            1 ADP800   0.0000
    30 H4'         26.9866    44.3671    73.3778 H            1 ADP800   0.0000
    31 H3'         27.6264    46.0285    75.5792 H            1 ADP800   0.0000
    32 H5          26.9260    46.4105    73.0329 H            1 ADP800   0.0000
    33 H2'         25.6694    46.1311    76.5736 H            1 ADP800   0.0000
    34 H7          24.7893    46.4056    74.0755 H            1 ADP800   0.0000
    35 H1'         24.6705    43.7570    76.0337 H            1 ADP800   0.0000
    36 H9          27.8007    45.1179    77.6443 H            1 ADP800   0.0000
    37 H10         27.0251    41.0790    82.1884 H            1 ADP800   0.0000
    38 H11         27.9596    42.4175    81.6092 H            1 ADP800   0.0000
    39 H12         23.8548    40.2824    79.0458 H            1 ADP800   0.0000
@<TRIPOS>BOND
     1    1    2      ar
     2    1    3      ar
     3    1    4      ar
     4    1    8       1
     5    5    6      ar
     6    5    7      ar
     7    5    8       1
     8    5    9       1
     9    9   10       1
    10   10   11       1
    11   11   12       1
    12   11   13       1
    13   12   17       1
    14   13   14       1
    15   13   15       1
    16   15   16       1
    17   15   17       1
    18   17   18       1
    19   18   19       1
    20   18   27       1
    21   19   20       2
    22   20   21       1
    23   21   22      ar
    24   21   27      ar
    25   22   23       1
    26   22   24      ar
    27   24   25      ar
    28   25   26      ar
    29   26   27      ar
    30   25   39       1
    31   23   38       1
    32   23   37       1
    33   10   28       1
    34   10   29       1
    35   11   30       1
    36   13   31       1
    37   14   32       1
    38   15   33       1
    39   16   34       1
    40   17   35       1
    41   19   36       1
@<TRIPOS>SUBSTRUCTURE
     1 ADP800      1 GROUP             4 A     ADP     0 **** ADP A 800
