@<TRIPOS>MOLECULE
3wqm_B29_2_ligand
   44    47     1     0     0
SMALL
NO_CHARGES


@<TRIPOS>ATOM
     1 CAY        -20.4500   -15.9200    23.2330 C.ar         1 B29402   0.0000
     2 CAP        -21.3370   -14.8110    23.2420 C.ar         1 B29402   0.0000
     3 CAI        -21.6870   -14.1770    22.0250 C.ar         1 B29402   0.0000
     4 CAH        -21.1540   -14.6460    20.7960 C.ar         1 B29402   0.0000
     5 CAO        -20.2690   -15.7530    20.7860 C.ar         1 B29402   0.0000
     6 CAX        -19.9190   -16.3890    22.0040 C.ar         1 B29402   0.0000
     7 OAT        -19.1080   -17.4530    22.2770 O.2          1 B29402   0.0000
     8 CBA        -19.0950   -17.6900    23.6330 C.ar         1 B29402   0.0000
     9 CAZ        -19.9410   -16.7230    24.2420 C.ar         1 B29402   0.0000
    10 CAQ        -20.1250   -16.7200    25.6460 C.ar         1 B29402   0.0000
    11 CAK        -19.4680   -17.6780    26.4410 C.ar         1 B29402   0.0000
    12 CAN        -18.6250   -18.6480    25.8550 C.ar         1 B29402   0.0000
    13 CAW        -18.4150   -18.6810    24.4420 C.ar         1 B29402   0.0000
    14 CAV        -17.5550   -19.6810    23.8590 C.ar         1 B29402   0.0000
    15 CAR        -17.4000   -19.7960    22.4440 C.ar         1 B29402   0.0000
    16 CAM        -16.8380   -20.6000    24.6910 C.ar         1 B29402   0.0000
    17 CAJ        -16.0050   -21.5870    24.1140 C.ar         1 B29402   0.0000
    18 CAL        -15.8700   -21.6830    22.7110 C.ar         1 B29402   0.0000
    19 CAU        -16.5690   -20.7830    21.8650 C.ar         1 B29402   0.0000
    20 CAS        -16.4520   -20.8700    20.3340 C.3          1 B29402   0.0000
    21 CBB        -15.1580   -20.3360    19.6840 C.3          1 B29402   0.0000
    22 PBC        -15.2830   -20.5970    17.8290 P.3          1 B29402   0.0000
    23 OAD        -13.8130   -20.3530    17.2060 O.co2        1 B29402   0.0000
    24 OAE        -15.6300   -22.1470    17.5850 O.co2        1 B29402  -1.0000
    25 OAA        -16.3090   -19.7190    17.2180 O.co2        1 B29402  -1.0000
    26 PBD        -14.8520   -18.5060    19.9830 P.3          1 B29402   0.0000
    27 OAF        -16.3090   -17.8420    20.1920 O.co2        1 B29402   0.0000
    28 OAG        -14.0440   -18.3430    21.3630 O.co2        1 B29402  -1.0000
    29 OAB        -14.1310   -17.9100    18.8380 O.co2        1 B29402  -1.0000
    30 OAC        -14.0360   -21.0540    20.1900 O.3          1 B29402   0.0000
    31 HAP        -21.7139   -14.4783    24.1064 H            1 B29402   0.0000
    32 HAI        -22.3118   -13.3962    22.0316 H            1 B29402   0.0000
    33 HAH        -21.4026   -14.1960    19.9383 H            1 B29402   0.0000
    34 HAO        -19.8920   -16.0850    19.9213 H            1 B29402   0.0000
    35 HAQ        -20.7204   -16.0387    26.0718 H            1 B29402   0.0000
    36 HAK        -19.5996   -17.6717    27.4323 H            1 B29402   0.0000
    37 HAN        -18.1688   -19.3211    26.4371 H            1 B29402   0.0000
    38 HAR        -17.8919   -19.1621    21.8471 H            1 B29402   0.0000
    39 HAM        -16.9267   -20.5437    25.6855 H            1 B29402   0.0000
    40 HAJ        -15.5073   -22.2224    24.7044 H            1 B29402   0.0000
    41 HAL        -15.2809   -22.3864    22.3133 H            1 B29402   0.0000
    42 HAS1       -17.2162   -20.3548    19.9459 H            1 B29402   0.0000
    43 HAS2       -16.5376   -21.8339    20.0818 H            1 B29402   0.0000
    44 HAC        -13.1993   -20.7060    19.7672 H            1 B29402   0.0000
@<TRIPOS>BOND
     1    1    2      ar
     2    1    6      ar
     3    1    9       1
     4    2    3      ar
     5    3    4      ar
     6    4    5      ar
     7    5    6      ar
     8    6    7       1
     9    7    8       1
    10    8    9      ar
    11    8   13      ar
    12    9   10      ar
    13   10   11      ar
    14   11   12      ar
    15   12   13      ar
    16   13   14       1
    17   14   15      ar
    18   14   16      ar
    19   15   19      ar
    20   16   17      ar
    21   17   18      ar
    22   18   19      ar
    23   19   20       1
    24   20   21       1
    25   21   22       1
    26   21   26       1
    27   21   30       1
    28   22   23      ar
    29   22   24      ar
    30   22   25      ar
    31   26   27      ar
    32   26   28      ar
    33   26   29      ar
    34    2   31       1
    35    3   32       1
    36    4   33       1
    37    5   34       1
    38   10   35       1
    39   11   36       1
    40   12   37       1
    41   15   38       1
    42   16   39       1
    43   17   40       1
    44   18   41       1
    45   20   42       1
    46   20   43       1
    47   30   44       1
@<TRIPOS>SUBSTRUCTURE
     1 B29402      1 GROUP             4 A     B29     0 **** B29 A 402
