@<TRIPOS>MOLECULE
4dve_BTN_3_ligand
   31    32     1     0     0
SMALL
NO_CHARGES


@<TRIPOS>ATOM
     1 C11         33.3870   -19.7880    47.3000 C.2          1 BTN201   0.0000
     2 O11         34.3270   -20.5970    47.4800 O.co2        1 BTN201   0.0000
     3 O12         33.1430   -18.8650    48.1000 O.co2        1 BTN201  -1.0000
     4 C10         32.5000   -19.9070    46.0680 C.3          1 BTN201   0.0000
     5 C9          33.2990   -19.5530    44.8250 C.3          1 BTN201   0.0000
     6 C8          32.3680   -19.4980    43.6070 C.3          1 BTN201   0.0000
     7 C7          33.1530   -19.5230    42.2960 C.3          1 BTN201   0.0000
     8 C2          32.2300   -19.6140    41.0800 C.3          1 BTN201   0.0000
     9 S1          31.5770   -21.2630    40.9110 S.3          1 BTN201   0.0000
    10 C6          31.1590   -21.0200    39.1970 C.3          1 BTN201   0.0000
    11 C5          32.2410   -20.1020    38.6270 C.3          1 BTN201   0.0000
    12 N1          33.3230   -20.9020    38.1210 N.am         1 BTN201   0.0000
    13 C3          34.4600   -20.6900    38.7420 C.2          1 BTN201   0.0000
    14 O3          35.5190   -21.2310    38.4760 O.2          1 BTN201   0.0000
    15 N2          34.2560   -19.7730    39.6640 N.am         1 BTN201   0.0000
    16 C4          32.9130   -19.2930    39.7450 C.3          1 BTN201   0.0000
    17 H1          31.7252   -19.2807    46.1546 H            1 BTN201   0.0000
    18 H2          32.1631   -20.8453    45.9904 H            1 BTN201   0.0000
    19 H3          34.0027   -20.2472    44.6739 H            1 BTN201   0.0000
    20 H4          33.7326   -18.6609    44.9520 H            1 BTN201   0.0000
    21 H5          31.8306   -18.6556    43.6473 H            1 BTN201   0.0000
    22 H6          31.7538   -20.2867    43.6324 H            1 BTN201   0.0000
    23 H7          33.7625   -20.3158    42.2992 H            1 BTN201   0.0000
    24 H8          33.6955   -18.6857    42.2281 H            1 BTN201   0.0000
    25 H9          31.4675   -18.9801    41.2094 H            1 BTN201   0.0000
    26 H10         30.2599   -20.5898    39.1160 H            1 BTN201   0.0000
    27 H11         31.1548   -21.8949    38.7127 H            1 BTN201   0.0000
    28 H12         31.8709   -19.5022    37.9176 H            1 BTN201   0.0000
    29 H13         33.2198   -21.5550    37.3707 H            1 BTN201   0.0000
    30 H14         34.9847   -19.4383    40.2615 H            1 BTN201   0.0000
    31 H15         32.8722   -18.3130    39.5501 H            1 BTN201   0.0000
@<TRIPOS>BOND
     1    1    2      ar
     2    1    3      ar
     3    1    4       1
     4    4    5       1
     5    5    6       1
     6    6    7       1
     7    7    8       1
     8    8    9       1
     9    8   16       1
    10    9   10       1
    11   10   11       1
    12   11   12       1
    13   11   16       1
    14   12   13      am
    15   13   14       2
    16   13   15      am
    17   15   16       1
    18   16   31       1
    19    4   17       1
    20    4   18       1
    21    5   19       1
    22    5   20       1
    23    6   21       1
    24    6   22       1
    25    7   23       1
    26    7   24       1
    27    8   25       1
    28   10   26       1
    29   10   27       1
    30   11   28       1
    31   12   29       1
    32   15   30       1
@<TRIPOS>SUBSTRUCTURE
     1 BTN201      1 GROUP             4 C     BTN     0 **** BTN C 201
