@<TRIPOS>MOLECULE
4gii_0X6_1_ligand
   37    39     1     0     0
SMALL
NO_CHARGES


@<TRIPOS>ATOM
     1 C4          -9.6390   -10.8520   -17.2860 C.ar         1 0X61201   0.0000
     2 C14         -4.6160    -4.8750   -16.1640 C.ar         1 0X61201   0.0000
     3 C5          -8.8460    -9.7030   -17.2500 C.ar         1 0X61201   0.0000
     4 C6          -8.7340    -8.9640   -16.0700 C.ar         1 0X61201   0.0000
     5 C11         -7.3100    -4.5030   -15.4890 C.ar         1 0X61201   0.0000
     6 C8          -7.5980    -6.9540   -15.1290 C.2          1 0X61201   0.0000
     7 C10         -6.7500    -5.7940   -15.4840 C.ar         1 0X61201   0.0000
     8 C12         -6.5250    -3.4120   -15.8140 C.ar         1 0X61201   0.0000
     9 C13         -5.1770    -3.5900   -16.1520 C.ar         1 0X61201   0.0000
    10 N3         -10.3280   -11.2080   -16.1990 N.ar         1 0X61201   0.0000
    11 C1          -9.4870    -9.3840   -14.9550 C.ar         1 0X61201   0.0000
    12 C2         -10.2740   -10.5230   -15.0600 C.ar         1 0X61201   0.0000
    13 N7          -7.9330    -7.8120   -16.1230 N.am         1 0X61201   0.0000
    14 O9          -7.9630    -7.0850   -13.9710 O.2          1 0X61201   0.0000
    15 C15         -5.3980    -5.9700   -15.8370 C.ar         1 0X61201   0.0000
    16 CL1         -4.6910    -7.5500   -15.8820 Cl           1 0X61201   0.0000
    17 C17         -4.3670    -2.4620   -16.4880 C.1          1 0X61201   0.0000
    18 N18         -3.7160    -1.5720   -16.7520 N.1          1 0X61201   0.0000
    19 CL2         -8.9850    -4.2690   -15.0940 Cl           1 0X61201   0.0000
    20 N20         -9.7530   -11.6350   -18.4470 N.am         1 0X61201   0.0000
    21 C21         -8.7770   -11.8630   -19.3710 C.2          1 0X61201   0.0000
    22 O22         -7.6650   -11.3590   -19.2850 O.2          1 0X61201   0.0000
    23 C23         -9.1230   -12.7580   -20.5430 C.3          1 0X61201   0.0000
    24 C24         -8.4290   -12.5480   -21.8920 C.3          1 0X61201   0.0000
    25 C25         -8.0810   -13.7660   -21.0310 C.3          1 0X61201   0.0000
    26 H1          -3.6543    -5.0003   -16.4079 H            1 0X61201   0.0000
    27 H2          -8.3571    -9.4086   -18.0711 H            1 0X61201   0.0000
    28 H3          -6.9205    -2.4935   -15.8078 H            1 0X61201   0.0000
    29 H4          -9.4548    -8.8681   -14.0990 H            1 0X61201   0.0000
    30 H5         -10.8057   -10.8316   -14.2713 H            1 0X61201   0.0000
    31 H6          -7.5558    -7.5934   -17.0230 H            1 0X61201   0.0000
    32 H7         -10.6389   -12.0685   -18.6121 H            1 0X61201   0.0000
    33 H8         -10.0743   -13.0627   -20.5886 H            1 0X61201   0.0000
    34 H9          -7.7655   -11.8081   -22.0034 H            1 0X61201   0.0000
    35 H10         -8.9419   -12.6665   -22.7422 H            1 0X61201   0.0000
    36 H11         -8.3664   -14.6800   -21.3194 H            1 0X61201   0.0000
    37 H12         -7.1899   -13.8216   -20.5805 H            1 0X61201   0.0000
@<TRIPOS>BOND
     1    1    3      ar
     2    1   10      ar
     3    1   20       1
     4    2    9      ar
     5    2   15      ar
     6    3    4      ar
     7    4   11      ar
     8    4   13       1
     9    5    7      ar
    10    5    8      ar
    11    5   19       1
    12    6    7       1
    13    6   13      am
    14    6   14       2
    15    7   15      ar
    16    8    9      ar
    17    9   17       1
    18   10   12      ar
    19   11   12      ar
    20   15   16       1
    21   17   18       3
    22   20   21      am
    23   21   22       2
    24   21   23       1
    25   23   24       1
    26   23   25       1
    27   24   25       1
    28    2   26       1
    29    3   27       1
    30    8   28       1
    31   11   29       1
    32   12   30       1
    33   13   31       1
    34   20   32       1
    35   23   33       1
    36   24   34       1
    37   24   35       1
    38   25   36       1
    39   25   37       1
@<TRIPOS>SUBSTRUCTURE
     1 0X61201     1 GROUP             4 A     0X6     0 **** 0X6 A1201
