@<TRIPOS>MOLECULE
3akd_CDP_1_ligand
   37    38     1     0     0
SMALL
NO_CHARGES


@<TRIPOS>ATOM
     1 O3B         33.8900    20.5590     1.2030 O.co2        1 CDP209   0.0000
     2 PB          33.8320    21.6320     2.2310 P.3          1 CDP209   0.0000
     3 O1B         33.3760    21.0740     3.4810 O.co2        1 CDP209  -1.0000
     4 O2B         32.8460    22.6880     1.9030 O.co2        1 CDP209  -1.0000
     5 O3A         35.2310    22.2810     2.3480 O.3          1 CDP209   0.0000
     6 PA          35.4520    23.7630     2.3440 P.3          1 CDP209   0.0000
     7 O1A         34.8050    24.4840     1.2440 O.co2        1 CDP209   0.0000
     8 O2A         36.8820    23.9200     2.2180 O.co2        1 CDP209  -1.0000
     9 O5'         34.9260    24.3560     3.6690 O.3          1 CDP209   0.0000
    10 C5'         35.4430    23.9260     4.8940 C.3          1 CDP209   0.0000
    11 C4'         34.6790    24.3770     6.0390 C.3          1 CDP209   0.0000
    12 O4'         34.6920    25.7650     6.1580 O.3          1 CDP209   0.0000
    13 C3'         33.3040    24.0980     5.8160 C.3          1 CDP209   0.0000
    14 O3'         32.9530    22.7810     6.0290 O.3          1 CDP209   0.0000
    15 C2'         32.6540    25.1510     6.4170 C.3          1 CDP209   0.0000
    16 O2'         32.4600    24.3920     7.7580 O.3          1 CDP209   0.0000
    17 C1'         33.4700    26.1550     6.5790 C.3          1 CDP209   0.0000
    18 N1          32.8620    27.1240     5.6590 N.pl3        1 CDP209   0.0000
    19 C2          31.9540    28.0220     6.0440 C.2          1 CDP209   0.0000
    20 O2          31.4240    27.9360     7.1220 O.2          1 CDP209   0.0000
    21 N3          31.5270    28.9710     5.2070 N.2          1 CDP209   0.0000
    22 C4          32.0490    29.0670     3.9860 C.2          1 CDP209   0.0000
    23 N4          31.6530    30.1280     3.0950 N.pl3        1 CDP209   0.0000
    24 C5          32.9790    28.1570     3.5770 C.2          1 CDP209   0.0000
    25 C6          33.3870    27.1740     4.4510 C.2          1 CDP209   0.0000
    26 H5'1        36.3771    24.2723     4.9815 H            1 CDP209   0.0000
    27 H5'2        35.4565    22.9261     4.8975 H            1 CDP209   0.0000
    28 H4'         35.0016    23.9418     6.8795 H            1 CDP209   0.0000
    29 H3'         33.1704    24.2421     4.8355 H            1 CDP209   0.0000
    30 H5          33.0544    22.2671     5.1772 H            1 CDP209   0.0000
    31 H2'         31.7952    25.4003     5.9694 H            1 CDP209   0.0000
    32 H7          32.3855    23.4111     7.5781 H            1 CDP209   0.0000
    33 H1'         33.4820    26.4849     7.5229 H            1 CDP209   0.0000
    34 H9          32.0530    30.1884     2.1805 H            1 CDP209   0.0000
    35 H10         30.9782    30.8039     3.3912 H            1 CDP209   0.0000
    36 H11         33.3600    28.2030     2.6536 H            1 CDP209   0.0000
    37 H12         34.0752    26.5044     4.1717 H            1 CDP209   0.0000
@<TRIPOS>BOND
     1    1    2      ar
     2    2    3      ar
     3    2    4      ar
     4    2    5       1
     5    5    6       1
     6    6    7      ar
     7    6    8      ar
     8    6    9       1
     9    9   10       1
    10   10   11       1
    11   11   12       1
    12   11   13       1
    13   12   17       1
    14   13   14       1
    15   13   15       1
    16   15   16       1
    17   15   17       1
    18   17   18       1
    19   18   19       1
    20   18   25       1
    21   19   20       2
    22   19   21       1
    23   21   22       2
    24   22   23       1
    25   22   24       1
    26   24   25       2
    27   25   37       1
    28   24   36       1
    29   23   35       1
    30   10   26       1
    31   10   27       1
    32   11   28       1
    33   13   29       1
    34   14   30       1
    35   15   31       1
    36   16   32       1
    37   17   33       1
    38   23   34       1
@<TRIPOS>SUBSTRUCTURE
     1 CDP209      1 GROUP             4 A     CDP     0 **** CDP A 209
