@<TRIPOS>MOLECULE
4fv1_EK4_1_ligand
   51    54     1     0     0
SMALL
NO_CHARGES


@<TRIPOS>ATOM
     1 O1          15.4180     3.8000    17.8120 O.2          1 EK4401   0.0000
     2 C15         16.1060     4.3530    16.9520 C.2          1 EK4401   0.0000
     3 N4          15.5890     5.1800    16.0290 N.am         1 EK4401   0.0000
     4 C16         14.2420     5.7330    16.1400 C.3          1 EK4401   0.0000
     5 C18         14.1200     6.7750    17.2320 C.ar         1 EK4401   0.0000
     6 C23         15.1720     7.6410    17.5050 C.ar         1 EK4401   0.0000
     7 C22         14.9790     8.7600    18.2980 C.ar         1 EK4401   0.0000
     8 C21         13.7430     9.0130    18.8470 C.ar         1 EK4401   0.0000
     9 C20         12.7090     8.1230    18.6420 C.ar         1 EK4401   0.0000
    10 C19         12.8960     7.0100    17.8400 C.ar         1 EK4401   0.0000
    11 C17         13.8690     6.4160    14.8300 C.3          1 EK4401   0.0000
    12 O2          14.1420     5.5880    13.7100 O.3          1 EK4401   0.0000
    13 C13         17.5780     4.1160    16.8770 C.2          1 EK4401   0.0000
    14 C12         18.5160     4.5920    15.9860 C.2          1 EK4401   0.0000
    15 N3          18.1730     3.2640    17.7760 N.pl3        1 EK4401   0.0000
    16 C14         19.4850     3.1900    17.4180 C.2          1 EK4401   0.0000
    17 C11         19.7600     3.9690    16.3120 C.2          1 EK4401   0.0000
    18 C10         21.0220     4.1700    15.7350 C.2          1 EK4401   0.0000
    19 N2          22.0620     3.3660    16.0500 N.pl3        1 EK4401   0.0000
    20 N1          23.2140     3.7050    15.4100 N.2          1 EK4401   0.0000
    21 C9          22.9220     4.7750    14.6850 C.2          1 EK4401   0.0000
    22 C8          21.5830     5.1670    14.8180 C.2          1 EK4401   0.0000
    23 C4          21.0310     6.3710    14.1440 C.ar         1 EK4401   0.0000
    24 C3          20.1820     7.2370    14.8310 C.ar         1 EK4401   0.0000
    25 C5          21.3500     6.6460    12.8180 C.ar         1 EK4401   0.0000
    26 C6          20.8230     7.7640    12.1890 C.ar         1 EK4401   0.0000
    27 C7          19.9620     8.6050    12.8750 C.ar         1 EK4401   0.0000
    28 C2          19.6250     8.3460    14.1980 C.ar         1 EK4401   0.0000
    29 C1          18.6090     9.1850    14.9130 C.3          1 EK4401   0.0000
    30 F1          18.1240    10.1740    14.1800 F            1 EK4401   0.0000
    31 F2          19.0740     9.7470    16.0190 F            1 EK4401   0.0000
    32 F3          17.5620     8.4990    15.2890 F            1 EK4401   0.0000
    33 H1          16.1469     5.4262    15.2365 H            1 EK4401   0.0000
    34 H2          13.5958     4.9912    16.3197 H            1 EK4401   0.0000
    35 H3          16.0779     7.4543    17.1249 H            1 EK4401   0.0000
    36 H4          15.7396     9.3854    18.4719 H            1 EK4401   0.0000
    37 H5          13.5949     9.8382    19.3921 H            1 EK4401   0.0000
    38 H6          11.8214     8.2823    19.0742 H            1 EK4401   0.0000
    39 H7          12.1413     6.3695    17.6978 H            1 EK4401   0.0000
    40 H8          14.3958     7.2616    14.7439 H            1 EK4401   0.0000
    41 H9          12.8926     6.6315    14.8434 H            1 EK4401   0.0000
    42 H10         13.2942     5.4154    13.2086 H            1 EK4401   0.0000
    43 H11         18.3560     5.2497    15.2499 H            1 EK4401   0.0000
    44 H12         17.7314     2.7930    18.5396 H            1 EK4401   0.0000
    45 H13         20.1667     2.6381    17.8983 H            1 EK4401   0.0000
    46 H14         23.5845     5.2507    14.1063 H            1 EK4401   0.0000
    47 H15         19.9697     7.0597    15.7920 H            1 EK4401   0.0000
    48 H16         21.9620     6.0348    12.3162 H            1 EK4401   0.0000
    49 H17         21.0647     7.9633    11.2393 H            1 EK4401   0.0000
    50 H18         19.5795     9.4057    12.4139 H            1 EK4401   0.0000
    51 H19         21.9919     2.5997    16.6887 H            1 EK4401   0.0000
@<TRIPOS>BOND
     1    1    2       2
     2    2    3      am
     3    2   13       1
     4    3    4       1
     5    4    5       1
     6    4   11       1
     7    5    6      ar
     8    5   10      ar
     9    6    7      ar
    10    7    8      ar
    11    8    9      ar
    12    9   10      ar
    13   11   12       1
    14   13   14       2
    15   13   15       1
    16   14   17       1
    17   15   16       1
    18   16   17       2
    19   17   18       1
    20   18   19       1
    21   18   22       2
    22   19   20       1
    23   20   21       2
    24   21   22       1
    25   22   23       1
    26   23   24      ar
    27   23   25      ar
    28   24   28      ar
    29   25   26      ar
    30   26   27      ar
    31   27   28      ar
    32   28   29       1
    33   29   30       1
    34   29   31       1
    35   29   32       1
    36    3   33       1
    37    4   34       1
    38    6   35       1
    39    7   36       1
    40    8   37       1
    41    9   38       1
    42   10   39       1
    43   11   40       1
    44   11   41       1
    45   12   42       1
    46   14   43       1
    47   15   44       1
    48   16   45       1
    49   27   50       1
    50   21   46       1
    51   24   47       1
    52   25   48       1
    53   26   49       1
    54   19   51       1
@<TRIPOS>SUBSTRUCTURE
     1 EK4401      1 GROUP             4 A     EK4     0 **** EK4 A 401
