@<TRIPOS>MOLECULE
1bob_ACO_1_ligand
   85    87     1     0     0
SMALL
NO_CHARGES


@<TRIPOS>ATOM
     1 N1A         29.3370    20.1470     1.3450 N.ar         1 ACO400   0.0000
     2 C2A         30.4730    19.4980     0.8690 C.ar         1 ACO400   0.0000
     3 N3A         31.3310    19.9410    -0.0640 N.ar         1 ACO400   0.0000
     4 C4A         30.9930    21.1420    -0.5400 C.ar         1 ACO400   0.0000
     5 C5A         29.8770    21.9470    -0.1710 C.ar         1 ACO400   0.0000
     6 C6A         28.9780    21.3860     0.8630 C.ar         1 ACO400   0.0000
     7 N6A         27.9300    22.0080     1.2880 N.pl3        1 ACO400   0.0000
     8 N7A         29.8400    23.1140    -0.8550 N.2          1 ACO400   0.0000
     9 C8A         30.9260    23.0690    -1.6670 C.2          1 ACO400   0.0000
    10 N9A         31.6640    21.8970    -1.5210 N.pl3        1 ACO400   0.0000
    11 C1B         32.9540    21.5240    -2.2020 C.3          1 ACO400   0.0000
    12 C2B         33.6760    22.7490    -2.7470 C.3          1 ACO400   0.0000
    13 O2B         33.5740    22.7120    -4.1460 O.3          1 ACO400   0.0000
    14 C3B         35.1490    22.6890    -2.2380 C.3          1 ACO400   0.0000
    15 O3B         36.1260    22.3450    -3.2280 O.3          1 ACO400   0.0000
    16 P3B         36.6630    20.6990    -3.3750 P.3          1 ACO400   0.0000
    17 O7A         37.4590    20.3140    -2.0580 O.co2        1 ACO400   0.0000
    18 O8A         37.7400    20.5750    -4.5360 O.co2        1 ACO400  -1.0000
    19 O9A         35.4070    19.7590    -3.5750 O.co2        1 ACO400  -1.0000
    20 C4B         35.0420    21.7620    -1.0190 C.3          1 ACO400   0.0000
    21 O4B         33.7710    21.0470    -1.1350 O.3          1 ACO400   0.0000
    22 C5B         34.7460    22.3740     0.2980 C.3          1 ACO400   0.0000
    23 O5B         35.2810    23.7160     0.5260 O.3          1 ACO400   0.0000
    24 P1A         34.5160    25.1570     0.1760 P.3          1 ACO400   0.0000
    25 O1A         33.2810    25.2550     1.0070 O.co2        1 ACO400   0.0000
    26 O2A         34.4210    25.4760    -1.2790 O.co2        1 ACO400  -1.0000
    27 O3A         35.6300    25.9890     0.8340 O.3          1 ACO400   0.0000
    28 P2A         35.9050    26.2390     2.4510 P.3          1 ACO400   0.0000
    29 O4A         36.0390    24.9350     3.1810 O.co2        1 ACO400   0.0000
    30 O5A         34.8380    27.0780     3.1190 O.co2        1 ACO400  -1.0000
    31 O6A         37.2860    27.1010     2.3880 O.3          1 ACO400   0.0000
    32 CBP         39.6990    26.8070     2.7380 C.3          1 ACO400   0.0000
    33 CCP         38.4630    26.5240     1.8190 C.3          1 ACO400   0.0000
    34 CDP         40.9900    26.0950     2.2330 C.3          1 ACO400   0.0000
    35 CEP         39.8170    28.3310     2.6440 C.3          1 ACO400   0.0000
    36 CAP         39.4040    26.3010     4.2030 C.3          1 ACO400   0.0000
    37 OAP         39.3280    24.8460     4.2390 O.3          1 ACO400   0.0000
    38 C9P         40.4820    26.7830     5.1850 C.2          1 ACO400   0.0000
    39 O9P         40.4210    28.0300     5.7170 O.2          1 ACO400   0.0000
    40 N8P         41.4440    25.9210     5.4320 N.am         1 ACO400   0.0000
    41 C7P         42.5700    26.1410     6.3320 C.3          1 ACO400   0.0000
    42 C6P         43.2710    27.4210     5.9330 C.3          1 ACO400   0.0000
    43 C5P         43.8860    27.2920     4.5600 C.2          1 ACO400   0.0000
    44 O5P         44.3950    26.1930     4.1160 O.2          1 ACO400   0.0000
    45 N4P         43.8450    28.4040     3.8700 N.am         1 ACO400   0.0000
    46 C3P         44.3770    28.5720     2.4610 C.3          1 ACO400   0.0000
    47 C2P         45.7090    29.2840     2.5860 C.3          1 ACO400   0.0000
    48 S1P         46.3970    29.8010     0.9550 S.3          1 ACO400   0.0000
    49 C           45.9690    31.5310     0.7510 C.2          1 ACO400   0.0000
    50 O           45.7610    31.9540     1.8470 O.2          1 ACO400   0.0000
    51 CH3         46.6810    32.1910    -0.0860 C.3          1 ACO400   0.0000
    52 H2A         30.6721    18.6021     1.2662 H            1 ACO400   0.0000
    53 H6A1        27.6973    22.9070     0.9169 H            1 ACO400   0.0000
    54 H6A2        27.3507    21.5909     1.9884 H            1 ACO400   0.0000
    55 H8A         31.1708    23.8005    -2.3034 H            1 ACO400   0.0000
    56 H1B         32.8163    20.8278    -2.9065 H            1 ACO400   0.0000
    57 H2B         33.2361    23.5779    -2.4013 H            1 ACO400   0.0000
    58 H7          34.4898    22.6778    -4.5462 H            1 ACO400   0.0000
    59 H3B         35.3814    23.6000    -1.8972 H            1 ACO400   0.0000
    60 H4B         35.8162    21.1312    -0.9666 H            1 ACO400   0.0000
    61 H5B1        35.1207    21.7730     1.0040 H            1 ACO400   0.0000
    62 H5B2        33.7518    22.4223     0.3946 H            1 ACO400   0.0000
    63 HCP1        38.6238    26.9230     0.9162 H            1 ACO400   0.0000
    64 HCP2        38.3369    25.5361     1.7292 H            1 ACO400   0.0000
    65 HDP1        41.7491    26.3046     2.8494 H            1 ACO400   0.0000
    66 HDP2        40.8396    25.1066     2.2135 H            1 ACO400   0.0000
    67 HDP3        41.2097    26.4170     1.3121 H            1 ACO400   0.0000
    68 HEP1        40.5877    28.6406     3.2009 H            1 ACO400   0.0000
    69 HEP2        39.9666    28.5956     1.6913 H            1 ACO400   0.0000
    70 HEP3        38.9738    28.7519     2.9784 H            1 ACO400   0.0000
    71 HAP         38.5220    26.6714     4.4943 H            1 ACO400   0.0000
    72 H21         39.1408    24.5450     5.1741 H            1 ACO400   0.0000
    73 H8P         41.3995    25.0392     4.9624 H            1 ACO400   0.0000
    74 H7P1        43.2080    25.3738     6.2657 H            1 ACO400   0.0000
    75 H7P2        42.2384    26.2185     7.2722 H            1 ACO400   0.0000
    76 H6P1        43.9914    27.6207     6.5972 H            1 ACO400   0.0000
    77 H6P2        42.6076    28.1692     5.9258 H            1 ACO400   0.0000
    78 H4P         43.4312    29.2032     4.3059 H            1 ACO400   0.0000
    79 H3P1        43.7426    29.1193     1.9152 H            1 ACO400   0.0000
    80 H3P2        44.5021    27.6783     2.0301 H            1 ACO400   0.0000
    81 H2P1        46.3610    28.6673     3.0271 H            1 ACO400   0.0000
    82 H2P2        45.5843    30.0982     3.1530 H            1 ACO400   0.0000
    83 HH31        46.3605    33.1375    -0.1227 H            1 ACO400   0.0000
    84 HH32        47.6378    32.1741     0.2041 H            1 ACO400   0.0000
    85 HH33        46.6001    31.7763    -0.9923 H            1 ACO400   0.0000
@<TRIPOS>BOND
     1    1    2      ar
     2    1    6      ar
     3    2    3      ar
     4    3    4      ar
     5    4    5      ar
     6    4   10       1
     7    5    6      ar
     8    5    8       1
     9    6    7       1
    10    8    9       2
    11    9   10       1
    12   10   11       1
    13   11   12       1
    14   11   21       1
    15   12   13       1
    16   12   14       1
    17   14   15       1
    18   14   20       1
    19   15   16       1
    20   16   17      ar
    21   16   18      ar
    22   16   19      ar
    23   20   21       1
    24   20   22       1
    25   22   23       1
    26   23   24       1
    27   24   25      ar
    28   24   26      ar
    29   24   27       1
    30   27   28       1
    31   28   29      ar
    32   28   30      ar
    33   28   31       1
    34   31   33       1
    35   32   33       1
    36   32   34       1
    37   32   35       1
    38   32   36       1
    39   36   37       1
    40   36   38       1
    41   38   39       2
    42   38   40      am
    43   40   41       1
    44   41   42       1
    45   42   43       1
    46   43   44       2
    47   43   45      am
    48   45   46       1
    49   46   47       1
    50   47   48       1
    51   48   49       1
    52   49   50       2
    53   49   51       1
    54    2   52       1
    55    7   53       1
    56    7   54       1
    57    9   55       1
    58   11   56       1
    59   12   57       1
    60   13   58       1
    61   14   59       1
    62   51   85       1
    63   51   84       1
    64   20   60       1
    65   22   61       1
    66   22   62       1
    67   51   83       1
    68   47   82       1
    69   33   63       1
    70   33   64       1
    71   34   65       1
    72   34   66       1
    73   34   67       1
    74   35   68       1
    75   35   69       1
    76   35   70       1
    77   36   71       1
    78   37   72       1
    79   40   73       1
    80   41   74       1
    81   41   75       1
    82   42   76       1
    83   42   77       1
    84   45   78       1
    85   46   79       1
    86   46   80       1
    87   47   81       1
@<TRIPOS>SUBSTRUCTURE
     1 ACO400      1 GROUP             4 A     ACO     0 **** ACO A 400
