@<TRIPOS>MOLECULE
1xwk_GDN_1_ligand
   50    50     1     0     0
SMALL
NO_CHARGES


@<TRIPOS>ATOM
     1 N1          41.3470    -4.6250    24.1540 N.4          1 GDN218   1.0000
     2 CA1         41.4490    -5.6510    23.1150 C.3          1 GDN218   0.0000
     3 C1          42.7260    -5.5280    22.3280 C.2          1 GDN218   0.0000
     4 O11         43.1790    -4.3840    22.1210 O.co2        1 GDN218   0.0000
     5 O12         43.2780    -6.5790    21.9220 O.co2        1 GDN218  -1.0000
     6 CB1         40.1930    -5.6090    22.2510 C.3          1 GDN218   0.0000
     7 CG1         40.0100    -6.8320    21.3760 C.3          1 GDN218   0.0000
     8 CD1         38.7410    -6.7630    20.5400 C.2          1 GDN218   0.0000
     9 OE1         37.8000    -6.0120    20.8370 O.2          1 GDN218   0.0000
    10 N2          38.7140    -7.5600    19.4910 N.am         1 GDN218   0.0000
    11 CA2         37.5790    -7.6090    18.6180 C.3          1 GDN218   0.0000
    12 C2          37.2140    -9.0440    18.3610 C.2          1 GDN218   0.0000
    13 O2          36.6090    -9.3430    17.3520 O.2          1 GDN218   0.0000
    14 CB2         37.5270    -6.8480    17.3130 C.3          1 GDN218   0.0000
    15 SG2         37.9140    -5.0800    17.5080 S.3          1 GDN218   0.0000
    16 N3          37.5810    -9.9340    19.2740 N.am         1 GDN218   0.0000
    17 CA3         37.2940   -11.3660    19.1620 C.3          1 GDN218   0.0000
    18 C3          36.3370   -11.8040    20.2450 C.2          1 GDN218   0.0000
    19 O31         36.1660   -13.0200    20.4550 O.co2        1 GDN218   0.0000
    20 O32         35.7450   -10.9220    20.8900 O.co2        1 GDN218  -1.0000
    21 C1'         36.3860    -4.0940    17.6400 C.ar         1 GDN218   0.0000
    22 C2'         36.4150    -2.6860    17.4700 C.ar         1 GDN218   0.0000
    23 C3'         35.2300    -1.9370    17.5660 C.ar         1 GDN218   0.0000
    24 C4'         34.0080    -2.5700    17.8320 C.ar         1 GDN218   0.0000
    25 C5'         33.9660    -3.9730    18.0030 C.ar         1 GDN218   0.0000
    26 C6'         35.1510    -4.7340    17.9060 C.ar         1 GDN218   0.0000
    27 N2'         37.6780    -1.9940    17.1840 N.2          1 GDN218   1.0000
    28 O2A         37.8220    -0.8300    17.5230 O.co2        1 GDN218   0.0000
    29 O2B         38.5700    -2.5830    16.6180 O.co2        1 GDN218  -1.0000
    30 N4'         32.8020    -1.7800    17.9380 N.2          1 GDN218   1.0000
    31 O4A         31.7190    -2.2850    18.1670 O.co2        1 GDN218   0.0000
    32 O4B         32.8930    -0.5710    17.8000 O.co2        1 GDN218  -1.0000
    33 H1          40.4880    -4.7401    24.6529 H            1 GDN218   0.0000
    34 H2          42.1152    -4.7149    24.7878 H            1 GDN218   0.0000
    35 HA1         41.4658    -6.5394    23.5738 H            1 GDN218   0.0000
    36 HB11        40.2438    -4.8037    21.6603 H            1 GDN218   0.0000
    37 HB12        39.3987    -5.5309    22.8534 H            1 GDN218   0.0000
    38 HG11        39.9653    -7.6417    21.9612 H            1 GDN218   0.0000
    39 HG12        40.7954    -6.9077    20.7617 H            1 GDN218   0.0000
    40 H8          39.5032    -8.1436    19.3000 H            1 GDN218   0.0000
    41 HA2         36.8218    -7.2437    19.1594 H            1 GDN218   0.0000
    42 HB21        36.6069    -6.9329    16.9306 H            1 GDN218   0.0000
    43 HB22        38.1890    -7.2518    16.6816 H            1 GDN218   0.0000
    44 H12         38.0785    -9.6109    20.0790 H            1 GDN218   0.0000
    45 HA31        38.1473   -11.8799    19.2503 H            1 GDN218   0.0000
    46 HA32        36.8850   -11.5501    18.2682 H            1 GDN218   0.0000
    47 H3'         35.2587    -0.9449    17.4436 H            1 GDN218   0.0000
    48 H5'         33.0954    -4.4269    18.1930 H            1 GDN218   0.0000
    49 H6'         35.1183    -5.7263    18.0253 H            1 GDN218   0.0000
    50 H18         41.3681    -3.7191    23.7311 H            1 GDN218   0.0000
@<TRIPOS>BOND
     1    1    2       1
     2    2    3       1
     3    2    6       1
     4    3    4      ar
     5    3    5      ar
     6    6    7       1
     7    7    8       1
     8    8    9       2
     9    8   10      am
    10   10   11       1
    11   11   12       1
    12   11   14       1
    13   12   13       2
    14   12   16      am
    15   14   15       1
    16   15   21       1
    17   16   17       1
    18   17   18       1
    19   18   19      ar
    20   18   20      ar
    21   21   22      ar
    22   21   26      ar
    23   22   23      ar
    24   22   27       1
    25   23   24      ar
    26   24   25      ar
    27   24   30       1
    28   25   26      ar
    29   27   28      ar
    30   27   29      ar
    31   30   31      ar
    32   30   32      ar
    33    1   33       1
    34    1   34       1
    35    2   35       1
    36    1   50       1
    37    6   36       1
    38    6   37       1
    39    7   38       1
    40    7   39       1
    41   10   40       1
    42   11   41       1
    43   14   42       1
    44   14   43       1
    45   16   44       1
    46   17   45       1
    47   17   46       1
    48   26   49       1
    49   23   47       1
    50   25   48       1
@<TRIPOS>SUBSTRUCTURE
     1 GDN218      1 GROUP             4 A     GDN     0 **** GDN A 218
