@<TRIPOS>MOLECULE
3rl3_5GP_1_ligand
   36    38     1     0     0
SMALL
NO_CHARGES


@<TRIPOS>ATOM
     1 P          -24.0770    10.5650     7.1860 P.3          1 5GP951   0.0000
     2 O1P        -22.7100     9.9540     7.2740 O.co2        1 5GP951   0.0000
     3 O2P        -24.7920    10.7370     8.6110 O.co2        1 5GP951  -1.0000
     4 O3P        -23.9890    11.9630     6.4880 O.co2        1 5GP951  -1.0000
     5 O5'        -25.0070     9.6110     6.2800 O.3          1 5GP951   0.0000
     6 C5'        -26.4230     9.8170     6.2150 C.3          1 5GP951   0.0000
     7 C4'        -27.0050     8.9770     5.0420 C.3          1 5GP951   0.0000
     8 O4'        -26.2170     9.2600     3.8430 O.3          1 5GP951   0.0000
     9 C3'        -26.8670     7.4600     5.1470 C.3          1 5GP951   0.0000
    10 O3'        -27.9090     6.9560     5.9520 O.3          1 5GP951   0.0000
    11 C2'        -27.0420     7.0410     3.6870 C.3          1 5GP951   0.0000
    12 O2'        -28.3950     7.2380     3.2210 O.3          1 5GP951   0.0000
    13 C1'        -26.1580     8.0840     3.0180 C.3          1 5GP951   0.0000
    14 N9         -24.7930     7.5330     2.9240 N.pl3        1 5GP951   0.0000
    15 C8         -23.8410     7.4910     3.8640 C.2          1 5GP951   0.0000
    16 N7         -22.7460     6.9020     3.3570 N.2          1 5GP951   0.0000
    17 C5         -23.0140     6.5560     2.0950 C.2          1 5GP951   0.0000
    18 C6         -22.2880     5.9210     1.0910 C.2          1 5GP951   0.0000
    19 O6         -21.1260     5.5560     1.2750 O.2          1 5GP951   0.0000
    20 N1         -22.8910     5.7230    -0.1520 N.2          1 5GP951   0.0000
    21 C2         -24.2070     6.1550    -0.3530 C.2          1 5GP951   0.0000
    22 N2         -24.8030     5.9860    -1.5260 N.pl3        1 5GP951   0.0000
    23 N3         -24.8790     6.7570     0.6350 N.pl3        1 5GP951   0.0000
    24 C4         -24.3110     6.9650     1.8270 C.2          1 5GP951   0.0000
    25 H5'1       -26.6138    10.7863     6.0599 H            1 5GP951   0.0000
    26 H5'2       -26.8435     9.5279     7.0750 H            1 5GP951   0.0000
    27 H4'        -27.9619     9.2230     4.8877 H            1 5GP951   0.0000
    28 H3'        -25.9694     7.1962     5.5000 H            1 5GP951   0.0000
    29 H5         -28.4584     6.3110     5.4208 H            1 5GP951   0.0000
    30 H2'        -26.7180     6.1097     3.5207 H            1 5GP951   0.0000
    31 H7         -28.9299     6.4103     3.3907 H            1 5GP951   0.0000
    32 H1'        -26.5063     8.2907     2.1037 H            1 5GP951   0.0000
    33 H9         -23.9310     7.8425     4.7959 H            1 5GP951   0.0000
    34 H10        -25.7436     6.2985    -1.6585 H            1 5GP951   0.0000
    35 H11        -24.3117     5.5461    -2.2777 H            1 5GP951   0.0000
    36 H12        -25.8205     7.0559     0.4793 H            1 5GP951   0.0000
@<TRIPOS>BOND
     1    1    2      ar
     2    1    3      ar
     3    1    4      ar
     4    1    5       1
     5    5    6       1
     6    6    7       1
     7    7    8       1
     8    7    9       1
     9    8   13       1
    10    9   10       1
    11    9   11       1
    12   11   12       1
    13   11   13       1
    14   13   14       1
    15   14   15       1
    16   14   24       1
    17   15   16       2
    18   16   17       1
    19   17   18       1
    20   17   24       2
    21   18   19       2
    22   18   20       1
    23   20   21       2
    24   21   22       1
    25   21   23       1
    26   23   24       1
    27   22   35       1
    28   22   34       1
    29    6   25       1
    30    6   26       1
    31    7   27       1
    32    9   28       1
    33   10   29       1
    34   11   30       1
    35   12   31       1
    36   13   32       1
    37   15   33       1
    38   23   36       1
@<TRIPOS>SUBSTRUCTURE
     1 5GP951      1 GROUP             4 A     5GP     0 **** 5GP A 951
