@<TRIPOS>MOLECULE
2yyu_C5P_2_ligand
   33    34     1     0     0
SMALL
NO_CHARGES


@<TRIPOS>ATOM
     1 O3P        -23.1280    33.4190    28.3310 O.co2        1 C5P2301   0.0000
     2 P          -21.9960    34.4170    27.8660 P.3          1 C5P2301   0.0000
     3 O1P        -21.7350    35.7420    28.1460 O.co2        1 C5P2301  -1.0000
     4 O2P        -20.4330    33.9730    27.9670 O.co2        1 C5P2301  -1.0000
     5 O5'        -22.2250    34.0880    29.5440 O.3          1 C5P2301   0.0000
     6 C5'        -21.3180    34.5030    30.6330 C.3          1 C5P2301   0.0000
     7 C4'        -21.9010    34.0660    31.9560 C.3          1 C5P2301   0.0000
     8 O4'        -22.5660    32.7240    32.0280 O.3          1 C5P2301   0.0000
     9 C3'        -20.7300    34.2100    32.9740 C.3          1 C5P2301   0.0000
    10 O3'        -20.8860    35.3040    33.8050 O.3          1 C5P2301   0.0000
    11 C2'        -20.7230    32.7480    33.6060 C.3          1 C5P2301   0.0000
    12 O2'        -21.0510    32.7800    35.0280 O.3          1 C5P2301   0.0000
    13 C1'        -21.7390    31.8380    32.7910 C.3          1 C5P2301   0.0000
    14 N1         -20.9940    30.7450    31.8870 N.pl3        1 C5P2301   0.0000
    15 C2         -21.1430    29.3140    32.1570 C.2          1 C5P2301   0.0000
    16 N3         -20.4470    28.3830    31.3180 N.2          1 C5P2301   0.0000
    17 C4         -19.5840    28.7770    30.2020 C.2          1 C5P2301   0.0000
    18 C5         -19.3760    30.2160    29.8550 C.2          1 C5P2301   0.0000
    19 C6         -20.0810    31.1320    30.7000 C.2          1 C5P2301   0.0000
    20 O2         -21.8290    28.8780    33.0660 O.2          1 C5P2301   0.0000
    21 N4         -18.9330    27.8170    29.4340 N.pl3        1 C5P2301   0.0000
    22 H5'1       -21.2172    35.4979    30.6239 H            1 C5P2301   0.0000
    23 H5'2       -20.4229    34.0760    30.5042 H            1 C5P2301   0.0000
    24 H4'        -22.5901    34.7454    32.2082 H            1 C5P2301   0.0000
    25 H3'        -19.8820    34.3298    32.4578 H            1 C5P2301   0.0000
    26 H5         -20.1111    35.9251    33.6874 H            1 C5P2301   0.0000
    27 H2'        -19.8050    32.3649    33.5032 H            1 C5P2301   0.0000
    28 H7         -21.6590    33.5522    35.2125 H            1 C5P2301   0.0000
    29 H1'        -22.3205    31.3562    33.4465 H            1 C5P2301   0.0000
    30 H9         -18.7945    30.5134    29.0978 H            1 C5P2301   0.0000
    31 H10        -19.9737    32.1071    30.5058 H            1 C5P2301   0.0000
    32 H11        -18.3463    28.0979    28.6745 H            1 C5P2301   0.0000
    33 H12        -19.0518    26.8460    29.6414 H            1 C5P2301   0.0000
@<TRIPOS>BOND
     1    1    2      ar
     2   18   19       2
     3    2    3      ar
     4    2    4      ar
     5    2    5       1
     6    5    6       1
     7    6    7       1
     8    7    8       1
     9    7    9       1
    10    8   13       1
    11    9   10       1
    12    9   11       1
    13   11   12       1
    14   11   13       1
    15   13   14       1
    16   14   15       1
    17   14   19       1
    18   15   16       1
    19   15   20       2
    20   16   17       2
    21   17   18       1
    22   17   21       1
    23   21   33       1
    24   21   32       1
    25    6   22       1
    26    6   23       1
    27    7   24       1
    28    9   25       1
    29   10   26       1
    30   11   27       1
    31   12   28       1
    32   13   29       1
    33   18   30       1
    34   19   31       1
@<TRIPOS>SUBSTRUCTURE
     1 C5P2301     1 GROUP             4 B     C5P     0 **** C5P B2301
