@<TRIPOS>MOLECULE
4nxx_GDP_1_ligand
   40    42     1     0     0
SMALL
NO_CHARGES


@<TRIPOS>ATOM
     1 PB         -23.3800   -22.9550   -18.1620 P.3          1 GDP501   0.0000
     2 O1B        -22.1490   -22.3030   -18.7520 O.co2        1 GDP501   0.0000
     3 O2B        -24.5310   -22.8520   -19.1400 O.co2        1 GDP501  -1.0000
     4 O3B        -23.7410   -22.2500   -16.8860 O.co2        1 GDP501  -1.0000
     5 O3A        -23.0700   -24.4670   -17.8850 O.3          1 GDP501   0.0000
     6 PA         -24.0020   -25.3490   -16.9760 P.3          1 GDP501   0.0000
     7 O1A        -23.3460   -25.5530   -15.6190 O.co2        1 GDP501   0.0000
     8 O2A        -25.3560   -24.6890   -16.7840 O.co2        1 GDP501  -1.0000
     9 O5'        -24.2010   -26.7430   -17.6850 O.3          1 GDP501   0.0000
    10 C5'        -25.2230   -26.8840   -18.6350 C.3          1 GDP501   0.0000
    11 C4'        -24.6460   -27.4890   -19.8930 C.3          1 GDP501   0.0000
    12 O4'        -24.0600   -28.7430   -19.6460 O.3          1 GDP501   0.0000
    13 C3'        -25.7260   -27.6060   -20.9250 C.3          1 GDP501   0.0000
    14 O3'        -25.2830   -27.3000   -22.2010 O.3          1 GDP501   0.0000
    15 C2'        -26.1080   -29.0310   -20.7390 C.3          1 GDP501   0.0000
    16 O2'        -26.6140   -29.5620   -21.9130 O.3          1 GDP501   0.0000
    17 C1'        -24.8380   -29.7110   -20.2900 C.3          1 GDP501   0.0000
    18 N9         -25.0540   -30.8840   -19.4430 N.pl3        1 GDP501   0.0000
    19 C8         -24.4080   -32.0620   -19.5490 C.2          1 GDP501   0.0000
    20 N7         -24.8380   -32.9030   -18.6190 N.2          1 GDP501   0.0000
    21 C5         -25.7690   -32.3010   -17.8800 C.2          1 GDP501   0.0000
    22 C6         -26.5700   -32.6980   -16.7610 C.2          1 GDP501   0.0000
    23 O6         -26.4730   -33.8240   -16.2780 O.2          1 GDP501   0.0000
    24 N1         -27.4610   -31.7650   -16.2360 N.pl3        1 GDP501   0.0000
    25 C2         -27.6290   -30.4270   -16.7480 C.2          1 GDP501   0.0000
    26 N2         -28.5890   -29.5050   -16.1440 N.pl3        1 GDP501   0.0000
    27 N3         -26.8910   -30.0490   -17.7870 N.2          1 GDP501   0.0000
    28 C4         -25.9250   -30.9920   -18.3890 C.2          1 GDP501   0.0000
    29 H5'1       -25.6133   -25.9871   -18.8430 H            1 GDP501   0.0000
    30 H5'2       -25.9374   -27.4825   -18.2724 H            1 GDP501   0.0000
    31 H4'        -23.9396   -26.8741   -20.2437 H            1 GDP501   0.0000
    32 H3'        -26.4942   -27.0140   -20.6812 H            1 GDP501   0.0000
    33 H5         -25.4055   -26.3222   -22.3708 H            1 GDP501   0.0000
    34 H2'        -26.7967   -29.1004   -20.0173 H            1 GDP501   0.0000
    35 H7         -26.8639   -30.5190   -21.7655 H            1 GDP501   0.0000
    36 H1'        -24.3437   -30.0087   -21.1067 H            1 GDP501   0.0000
    37 H9         -23.7064   -32.2712   -20.2301 H            1 GDP501   0.0000
    38 H10        -28.6934   -28.5806   -16.5110 H            1 GDP501   0.0000
    39 H11        -29.1414   -29.7986   -15.3638 H            1 GDP501   0.0000
    40 H12        -28.0201   -32.0404   -15.4540 H            1 GDP501   0.0000
@<TRIPOS>BOND
     1    1    2      ar
     2    1    3      ar
     3    1    4      ar
     4    1    5       1
     5    5    6       1
     6    6    7      ar
     7    6    8      ar
     8    6    9       1
     9    9   10       1
    10   10   11       1
    11   11   12       1
    12   11   13       1
    13   12   17       1
    14   13   14       1
    15   13   15       1
    16   15   16       1
    17   15   17       1
    18   17   18       1
    19   18   19       1
    20   18   28       1
    21   19   20       2
    22   20   21       1
    23   21   22       1
    24   21   28       2
    25   22   23       2
    26   22   24       1
    27   24   25       1
    28   25   26       1
    29   25   27       2
    30   27   28       1
    31   24   40       1
    32   26   39       1
    33   26   38       1
    34   10   29       1
    35   10   30       1
    36   11   31       1
    37   13   32       1
    38   14   33       1
    39   15   34       1
    40   16   35       1
    41   17   36       1
    42   19   37       1
@<TRIPOS>SUBSTRUCTURE
     1 GDP501      1 GROUP             4 A     GDP     0 **** GDP A 501
