@<TRIPOS>MOLECULE
./coach420/1q51/ligand.pdb
 54 56 0 0 0
SMALL
GASTEIGER

@<TRIPOS>ATOM
      1  N1A      -16.0820  -22.5500  149.4010 N.ar  501  CAA501     -0.2040
      2  C2A      -17.0670  -23.2780  149.8770 C.ar  501  CAA501      0.2016
      3  N3A      -17.4090  -23.4180  151.1380 N.ar  501  CAA501     -0.2048
      4  C4A      -16.6360  -22.7100  152.0020 C.ar  501  CAA501      0.1692
      5  C5A      -15.5940  -21.9100  151.6340 C.ar  501  CAA501      0.1518
      6  C6A      -15.3030  -21.8300  150.2440 C.ar  501  CAA501      0.1919
      7  N6A      -14.3160  -21.0880  149.7660 N.pl3 501  CAA501     -0.1054
      8  N7A      -15.0690  -21.3560  152.7750 N.ar  501  CAA501     -0.2193
      9  C8A      -15.7020  -21.7480  153.8600 C.ar  501  CAA501      0.1816
     10  N9A      -16.6690  -22.5910  153.3660 N.ar  501  CAA501     -0.2693
     11  C1B      -17.6740  -23.3180  154.1890 C.3   501  CAA501      0.2408
     12  C2B      -17.1490  -24.6840  154.7570 C.3   501  CAA501      0.2310
     13  O2B      -17.3910  -25.8750  153.9550 O.3   501  CAA501     -0.2156
     14  C3B      -17.6760  -24.8170  156.1890 C.3   501  CAA501      0.1904
     15  O3B      -18.8870  -25.5040  155.8840 O.3   501  CAA501     -0.2674
     16  P3B      -19.5750  -26.6220  156.6790 P.3   501  CAA501      0.5327
     17  O7A      -20.3050  -27.4810  155.6460 O.2   501  CAA501     -0.2224
     18  O8A      -18.5290  -27.4780  157.4120 O.3   501  CAA501     -0.1145
     19  O9A      -20.5430  -25.9870  157.6790 O.3   501  CAA501     -0.1145
     20  C4B      -18.2580  -23.4580  156.5580 C.3   501  CAA501      0.1775
     21  O4B      -18.2290  -22.6820  155.3540 O.3   501  CAA501     -0.3307
     22  C5B      -17.3530  -22.8660  157.5990 C.3   501  CAA501      0.1812
     23  O5B      -16.0150  -22.9170  157.1880 O.3   501  CAA501     -0.3112
     24  P1A      -14.8780  -23.3820  158.0890 P.3   501  CAA501      0.2189
     25  O1A      -15.3040  -24.6150  158.9020 O.3   501  CAA501     -0.4371
     26  O2A      -13.6330  -23.7630  157.2490 O.2   501  CAA501     -0.5170
     27  O3A      -14.6200  -22.1380  158.9960 O.3   501  CAA501     -0.2703
     28  P2A      -13.2040  -21.6320  159.4490 P.3   501  CAA501      0.2188
     29  O4A      -13.3770  -20.3890  160.3450 O.3   501  CAA501     -0.4371
     30  O5A      -12.4150  -22.7250  160.2200 O.2   501  CAA501     -0.5170
     31  O6A      -12.4120  -21.3010  158.1540 O.3   501  CAA501     -0.3138
     32  CBP      -11.4950  -20.0850  156.2800 C.3   501  CAA501      0.0645
     33  CCP      -12.3320  -19.9970  157.5490 C.3   501  CAA501      0.1519
     34  CDP      -10.0190  -20.0570  156.6570 C.3   501  CAA501      0.0056
     35  CEP      -11.8810  -18.8800  155.4010 C.3   501  CAA501      0.0056
     36  CAP      -11.7440  -21.4330  155.5290 C.3   501  CAA501      0.2312
     37  OAP      -13.1770  -21.6760  155.3420 O.3   501  CAA501     -0.2131
     38  C9P      -11.0430  -21.4980  154.1820 C.2   501  CAA501      0.2719
     39  O9P       -9.8590  -21.8330  154.1170 O.2   501  CAA501     -0.2706
     40  N8P      -11.8030  -21.1730  153.0250 N.am  501  CAA501     -0.2028
     41  C7P      -11.5700  -21.7640  151.7740 C.3   501  CAA501      0.1248
     42  C6P      -10.0960  -21.7370  151.3880 C.3   501  CAA501      0.1102
     43  C5P       -9.8850  -22.0640  149.9110 C.2   501  CAA501      0.2432
     44  O5P      -10.1030  -23.2040  149.5180 O.2   501  CAA501     -0.2733
     45  N4P       -9.4540  -20.9970  149.1220 N.am  501  CAA501     -0.2044
     46  C3P      -10.2820  -19.9430  148.7060 C.3   501  CAA501      0.1272
     47  C2P      -11.3460  -20.4460  147.7970 C.3   501  CAA501      0.0883
     48  S1P      -11.0100  -20.5840  145.9910 S.3   501  CAA501     -0.0749
     49  C1       -10.6700  -19.0370  145.2160 C.2   501  CAA501      0.2062
     50  O1       -10.4680  -18.0580  145.9220 O.2   501  CAA501     -0.2841
     51  C2       -10.6500  -18.9950  143.7210 C.3   501  CAA501      0.1401
     52  C3       -11.1960  -17.9010  142.8770 C.2   501  CAA501      0.1594
     53  O3       -11.0560  -16.7570  143.1700 O.2   501  CAA501     -0.2956
     54  C4       -11.9590  -18.0760  141.5910 C.3   501  CAA501      0.0728
@<TRIPOS>BOND
     1     1     2   ar
     2     1     6   ar
     3     2     3   ar
     4     3     4   ar
     5     4     5   ar
     6     4    10   ar
     7     5     6   ar
     8     5     8   ar
     9     6     7    1
    10     8     9   ar
    11     9    10   ar
    12    10    11    1
    13    11    12    1
    14    11    21    1
    15    12    13    1
    16    12    14    1
    17    14    15    1
    18    14    20    1
    19    15    16    1
    20    16    17    2
    21    16    18    1
    22    16    19    1
    23    20    21    1
    24    20    22    1
    25    22    23    1
    26    23    24    1
    27    24    26    2
    28    24    25    1
    29    24    27    1
    30    27    28    1
    31    28    31    1
    32    28    30    2
    33    28    29    1
    34    31    33    1
    35    32    35    1
    36    32    36    1
    37    32    34    1
    38    32    33    1
    39    36    38    1
    40    36    37    1
    41    38    40   am
    42    38    39    2
    43    40    41    1
    44    41    42    1
    45    42    43    1
    46    43    45   am
    47    43    44    2
    48    45    46    1
    49    46    47    1
    50    47    48    1
    51    48    49    1
    52    49    51    1
    53    49    50    2
    54    51    52    1
    55    52    54    1
    56    52    53    2
