@<TRIPOS>MOLECULE
4ajw_VWN_1_ligand
   43    46     1     0     0
SMALL
NO_CHARGES


@<TRIPOS>ATOM
     1 C1          10.0720    -4.2050     8.7630 C.2          1 VWN2027   0.0000
     2 N2           9.5460    -3.3900     7.7280 N.pl3        1 VWN2027   0.0000
     3 C3           8.6860    -2.2470     8.0620 C.3          1 VWN2027   0.0000
     4 C4           7.8220    -1.8920     6.8790 C.3          1 VWN2027   0.0000
     5 O5           8.6020    -1.6330     5.7170 O.3          1 VWN2027   0.0000
     6 C6           9.3590    -2.7900     5.3750 C.3          1 VWN2027   0.0000
     7 C7          10.3000    -3.1830     6.4840 C.3          1 VWN2027   0.0000
     8 N8          11.1580    -4.9550     8.4310 N.2          1 VWN2027   0.0000
     9 C9          11.6940    -5.7390     9.3690 C.2          1 VWN2027   0.0000
    10 N10         11.1950    -5.8280    10.6730 N.pl3        1 VWN2027   0.0000
    11 C11         10.0940    -5.0920    11.0700 C.2          1 VWN2027   0.0000
    12 C12          9.5290    -4.2560    10.0560 C.2          1 VWN2027   0.0000
    13 O13          9.6800    -5.1950    12.2330 O.2          1 VWN2027   0.0000
    14 C14         12.5470    -7.6900     8.0860 C.2          1 VWN2027   0.0000
    15 C15         12.9060    -6.5740     9.0080 C.3          1 VWN2027   0.0000
    16 N16         13.2910    -8.0030     6.9430 N.pl3        1 VWN2027   0.0000
    17 N17         11.5160    -8.4820     8.2700 N.2          1 VWN2027   0.0000
    18 C18         11.5640    -9.3780     7.2030 C.ar         1 VWN2027   0.0000
    19 C19         12.6490    -9.1000     6.3760 C.ar         1 VWN2027   0.0000
    20 C20         12.9270    -9.8550     5.2450 C.ar         1 VWN2027   0.0000
    21 C21         12.0810   -10.9190     4.9510 C.ar         1 VWN2027   0.0000
    22 C22         10.9910   -11.2100     5.7670 C.ar         1 VWN2027   0.0000
    23 C23         10.7210   -10.4450     6.8970 C.ar         1 VWN2027   0.0000
    24 C24         14.4910    -7.3780     6.3890 C.3          1 VWN2027   0.0000
    25 H1           9.2567    -1.4620     8.3032 H            1 VWN2027   0.0000
    26 H2           8.1030    -2.4864     8.8384 H            1 VWN2027   0.0000
    27 H3           7.2890    -1.0753     7.1003 H            1 VWN2027   0.0000
    28 H4           7.2021    -2.6536     6.6902 H            1 VWN2027   0.0000
    29 H5           9.8911    -2.5979     4.5504 H            1 VWN2027   0.0000
    30 H6           8.7314    -3.5481     5.1977 H            1 VWN2027   0.0000
    31 H7          10.7698    -4.0302     6.2359 H            1 VWN2027   0.0000
    32 H8          10.9732    -2.4563     6.6210 H            1 VWN2027   0.0000
    33 H9           8.7297    -3.6957    10.2733 H            1 VWN2027   0.0000
    34 H10         13.2974    -6.9571     9.8447 H            1 VWN2027   0.0000
    35 H11         13.5824    -5.9885     8.5613 H            1 VWN2027   0.0000
    36 H12         13.7098    -9.6410     4.6608 H            1 VWN2027   0.0000
    37 H13         12.2577   -11.4820     4.1436 H            1 VWN2027   0.0000
    38 H14         10.3944   -11.9791     5.5377 H            1 VWN2027   0.0000
    39 H15          9.9361   -10.6568     7.4794 H            1 VWN2027   0.0000
    40 H16         14.7620    -7.8581     5.5547 H            1 VWN2027   0.0000
    41 H17         14.2994    -6.4201     6.1750 H            1 VWN2027   0.0000
    42 H18         15.2323    -7.4282     7.0583 H            1 VWN2027   0.0000
    43 H19         11.6427    -6.4349    11.3297 H            1 VWN2027   0.0000
@<TRIPOS>BOND
     1    1    2       1
     2    1    8       1
     3    1   12       2
     4    2    3       1
     5    2    7       1
     6    3    4       1
     7    4    5       1
     8    5    6       1
     9    6    7       1
    10    8    9       2
    11    9   10       1
    12    9   15       1
    13   10   11       1
    14   11   12       1
    15   11   13       2
    16   14   15       1
    17   14   16       1
    18   14   17       2
    19   16   19       1
    20   16   24       1
    21   17   18       1
    22   18   19      ar
    23   18   23      ar
    24   19   20      ar
    25   20   21      ar
    26   21   22      ar
    27   22   23      ar
    28    3   25       1
    29    3   26       1
    30    4   27       1
    31    4   28       1
    32    6   29       1
    33    6   30       1
    34    7   31       1
    35    7   32       1
    36   24   42       1
    37   12   33       1
    38   15   34       1
    39   15   35       1
    40   20   36       1
    41   21   37       1
    42   22   38       1
    43   23   39       1
    44   24   40       1
    45   24   41       1
    46   10   43       1
@<TRIPOS>SUBSTRUCTURE
     1 VWN2027     1 GROUP             4 A     VWN     0 **** VWN A2027
