@<TRIPOS>MOLECULE
5dm3_ADP_5_ligand
   39    41     1     0     0
SMALL
NO_CHARGES


@<TRIPOS>ATOM
     1 PB         -51.1870   -41.4940    27.5920 P.3          1 ADP501   0.0000
     2 O1B        -52.1180   -41.2310    26.4310 O.co2        1 ADP501   0.0000
     3 O2B        -50.4050   -40.2970    28.0910 O.co2        1 ADP501  -1.0000
     4 O3B        -50.3470   -42.7290    27.3910 O.co2        1 ADP501  -1.0000
     5 PA         -51.7780   -41.9210    30.3630 P.3          1 ADP501   0.0000
     6 O1A        -50.4210   -41.3040    30.5970 O.co2        1 ADP501   0.0000
     7 O2A        -52.9540   -41.4260    31.1730 O.co2        1 ADP501  -1.0000
     8 O3A        -52.1970   -41.8400    28.8050 O.3          1 ADP501   0.0000
     9 O5'        -51.5980   -43.5110    30.5590 O.3          1 ADP501   0.0000
    10 C5'        -50.5140   -44.1100    31.2700 C.3          1 ADP501   0.0000
    11 C4'        -50.2150   -45.4520    30.6080 C.3          1 ADP501   0.0000
    12 O4'        -51.4300   -46.1690    30.3890 O.3          1 ADP501   0.0000
    13 C3'        -49.5740   -45.2580    29.2380 C.3          1 ADP501   0.0000
    14 O3'        -48.3030   -45.9140    29.1940 O.3          1 ADP501   0.0000
    15 C2'        -50.5460   -45.8560    28.2320 C.3          1 ADP501   0.0000
    16 O2'        -49.9180   -46.5660    27.1610 O.3          1 ADP501   0.0000
    17 C1'        -51.3960   -46.7700    29.0900 C.3          1 ADP501   0.0000
    18 N9         -52.7420   -46.9040    28.4860 N.pl3        1 ADP501   0.0000
    19 C8         -53.3670   -45.9550    27.7670 C.2          1 ADP501   0.0000
    20 N7         -54.5770   -46.3960    27.3460 N.2          1 ADP501   0.0000
    21 C5         -54.7380   -47.6550    27.7920 C.ar         1 ADP501   0.0000
    22 C6         -55.7890   -48.6980    27.7050 C.ar         1 ADP501   0.0000
    23 N6         -56.9380   -48.4660    27.0310 N.pl3        1 ADP501   0.0000
    24 N1         -55.5660   -49.8810    28.3130 N.ar         1 ADP501   0.0000
    25 C2         -54.4260   -50.1190    28.9820 C.ar         1 ADP501   0.0000
    26 N3         -53.4300   -49.2230    29.1030 N.ar         1 ADP501   0.0000
    27 C4         -53.5190   -47.9930    28.5370 C.ar         1 ADP501   0.0000
    28 H5'1       -50.7697   -44.2508    32.2264 H            1 ADP501   0.0000
    29 H5'2       -49.7081   -43.5197    31.2239 H            1 ADP501   0.0000
    30 H4'        -49.6067   -45.9889    31.1926 H            1 ADP501   0.0000
    31 H3'        -49.4567   -44.2819    29.0552 H            1 ADP501   0.0000
    32 H5         -47.6975   -45.4258    28.5655 H            1 ADP501   0.0000
    33 H2'        -51.1198   -45.1291    27.8548 H            1 ADP501   0.0000
    34 H7         -48.9253   -46.5355    27.2777 H            1 ADP501   0.0000
    35 H1'        -50.9646   -47.6702    29.1490 H            1 ADP501   0.0000
    36 H9         -52.9910   -45.0495    27.5703 H            1 ADP501   0.0000
    37 H10        -57.6395   -49.1768    26.9791 H            1 ADP501   0.0000
    38 H11        -57.0863   -47.5836    26.5844 H            1 ADP501   0.0000
    39 H12        -54.3111   -51.0131    29.4148 H            1 ADP501   0.0000
@<TRIPOS>BOND
     1    1    2      ar
     2    1    3      ar
     3    1    4      ar
     4    1    8       1
     5    5    6      ar
     6    5    7      ar
     7    5    8       1
     8    5    9       1
     9    9   10       1
    10   10   11       1
    11   11   12       1
    12   11   13       1
    13   12   17       1
    14   13   14       1
    15   13   15       1
    16   15   16       1
    17   15   17       1
    18   17   18       1
    19   18   19       1
    20   18   27       1
    21   19   20       2
    22   20   21       1
    23   21   22      ar
    24   21   27      ar
    25   22   23       1
    26   22   24      ar
    27   24   25      ar
    28   25   26      ar
    29   26   27      ar
    30   25   39       1
    31   23   38       1
    32   23   37       1
    33   10   28       1
    34   10   29       1
    35   11   30       1
    36   13   31       1
    37   14   32       1
    38   15   33       1
    39   16   34       1
    40   17   35       1
    41   19   36       1
@<TRIPOS>SUBSTRUCTURE
     1 ADP501      1 GROUP             4 E     ADP     0 **** ADP E 501
