@<TRIPOS>MOLECULE
3awi_FAD_4_ligand
   84    89     1     0     0
SMALL
NO_CHARGES


@<TRIPOS>ATOM
     1 PA          21.5730   164.5590    71.7370 P.3          1 FAD901   0.0000
     2 O1A         20.4150   164.4210    70.7730 O.co2        1 FAD901   0.0000
     3 O2A         21.2010   164.2760    73.1740 O.co2        1 FAD901  -1.0000
     4 O5B         22.1720   166.0400    71.6360 O.3          1 FAD901   0.0000
     5 C5B         22.4420   166.5580    70.3620 C.3          1 FAD901   0.0000
     6 C4B         22.8270   168.0200    70.4920 C.3          1 FAD901   0.0000
     7 O4B         23.4410   168.3950    69.2850 O.3          1 FAD901   0.0000
     8 C3B         21.6290   168.9390    70.6870 C.3          1 FAD901   0.0000
     9 O3B         21.7320   169.6240    71.9160 O.3          1 FAD901   0.0000
    10 C2B         21.6970   169.9300    69.5450 C.3          1 FAD901   0.0000
    11 O2B         21.5940   171.2340    70.0660 O.3          1 FAD901   0.0000
    12 C1B         23.0870   169.7200    68.9810 C.3          1 FAD901   0.0000
    13 N9A         23.2100   169.9120    67.5280 N.pl3        1 FAD901   0.0000
    14 C8A         22.7020   169.1240    66.5300 C.2          1 FAD901   0.0000
    15 N7A         23.0790   169.6520    65.3400 N.2          1 FAD901   0.0000
    16 C5A         23.8240   170.7590    65.5670 C.ar         1 FAD901   0.0000
    17 C6A         24.4540   171.6640    64.7150 C.ar         1 FAD901   0.0000
    18 N6A         24.7810   171.2750    63.4840 N.pl3        1 FAD901   0.0000
    19 N1A         25.1510   172.7180    65.2710 N.ar         1 FAD901   0.0000
    20 C2A         25.2330   172.8650    66.6420 C.ar         1 FAD901   0.0000
    21 N3A         24.6120   171.9610    67.4780 N.ar         1 FAD901   0.0000
    22 C4A         23.9200   170.9260    66.9440 C.ar         1 FAD901   0.0000
    23 N1          19.0640   156.6300    76.7880 N.2          1 FAD901   0.0000
    24 C2          19.2630   155.6630    77.7510 C.2          1 FAD901   0.0000
    25 O2          20.3790   155.4900    78.2210 O.2          1 FAD901   0.0000
    26 N3          18.2170   154.8820    78.1910 N.pl3        1 FAD901   0.0000
    27 C4          16.9560   155.0620    77.6680 C.2          1 FAD901   0.0000
    28 O4          16.0220   154.3620    78.0590 O.2          1 FAD901   0.0000
    29 C4X         16.7450   156.0350    76.6980 C.2          1 FAD901   0.0000
    30 N5          15.4820   156.2160    76.1730 N.2          1 FAD901   0.0000
    31 C5X         15.2690   157.1810    75.2100 C.ar         1 FAD901   0.0000
    32 C6          13.9960   157.3620    74.6810 C.ar         1 FAD901   0.0000
    33 C7          13.7750   158.3320    73.7100 C.ar         1 FAD901   0.0000
    34 C7M         12.4000   158.5280    73.1430 C.3          1 FAD901   0.0000
    35 C8          14.8290   159.1220    73.2670 C.ar         1 FAD901   0.0000
    36 C8M         14.5910   160.1710    72.2210 C.3          1 FAD901   0.0000
    37 C9          16.1020   158.9400    73.7960 C.ar         1 FAD901   0.0000
    38 C9A         16.3270   157.9700    74.7680 C.ar         1 FAD901   0.0000
    39 N10         17.5980   157.7860    75.2890 N.pl3        1 FAD901   0.0000
    40 C10         17.8060   156.8210    76.2580 C.2          1 FAD901   0.0000
    41 C1'         18.7370   158.6500    74.8200 C.3          1 FAD901   0.0000
    42 C2'         19.4960   158.0570    73.6420 C.3          1 FAD901   0.0000
    43 O2'         20.5470   157.2630    74.1270 O.3          1 FAD901   0.0000
    44 C3'         20.0900   159.1620    72.7770 C.3          1 FAD901   0.0000
    45 O3'         20.5550   158.6320    71.5530 O.3          1 FAD901   0.0000
    46 C4'         21.2450   159.8530    73.4850 C.3          1 FAD901   0.0000
    47 O4'         20.7500   160.7610    74.4390 O.3          1 FAD901   0.0000
    48 C5'         22.1040   160.5980    72.4710 C.3          1 FAD901   0.0000
    49 O5'         22.6290   161.7850    73.0230 O.3          1 FAD901   0.0000
    50 P           23.6570   162.6540    72.1420 P.3          1 FAD901   0.0000
    51 O1P         24.5420   163.4560    73.0710 O.co2        1 FAD901   0.0000
    52 O2P         24.4520   161.7340    71.2460 O.co2        1 FAD901  -1.0000
    53 O3P         22.7570   163.6080    71.2030 O.3          1 FAD901   0.0000
    54 H5B1        21.6275   166.4760    69.7876 H            1 FAD901   0.0000
    55 H5B2        23.1957   166.0489    69.9463 H            1 FAD901   0.0000
    56 H4B         23.4696   168.1353    71.2494 H            1 FAD901   0.0000
    57 H3B         20.7770   168.4169    70.6474 H            1 FAD901   0.0000
    58 H5          21.7517   170.6095    71.7477 H            1 FAD901   0.0000
    59 H2B         20.9910   169.7508    68.8598 H            1 FAD901   0.0000
    60 H7          21.6380   171.8962    69.3180 H            1 FAD901   0.0000
    61 H1B         23.7213   170.3390    69.4442 H            1 FAD901   0.0000
    62 H8A         22.1484   168.3010    66.6572 H            1 FAD901   0.0000
    63 H6A1        25.2335   171.9135    62.8615 H            1 FAD901   0.0000
    64 H6A2        24.5740   170.3444    63.1822 H            1 FAD901   0.0000
    65 H2A         25.7454   173.6309    67.0304 H            1 FAD901   0.0000
    66 H13         18.3735   154.1844    78.8902 H            1 FAD901   0.0000
    67 H14         13.2378   156.7932    74.9997 H            1 FAD901   0.0000
    68 H7M1        12.4214   159.2603    72.4624 H            1 FAD901   0.0000
    69 H7M2        12.0937   157.6799    72.7106 H            1 FAD901   0.0000
    70 H7M3        11.7683   158.7744    73.8780 H            1 FAD901   0.0000
    71 H8M1        15.4497   160.6427    72.0206 H            1 FAD901   0.0000
    72 H8M2        14.2458   159.7388    71.3879 H            1 FAD901   0.0000
    73 H8M3        13.9189   160.8307    72.5573 H            1 FAD901   0.0000
    74 H21         16.8596   159.5091    73.4763 H            1 FAD901   0.0000
    75 H1'1        19.3756   158.7733    75.5796 H            1 FAD901   0.0000
    76 H1'2        18.3694   159.5387    74.5459 H            1 FAD901   0.0000
    77 H2'         18.8774   157.4959    73.0920 H            1 FAD901   0.0000
    78 H25         20.2913   156.8765    75.0131 H            1 FAD901   0.0000
    79 H3'         19.3788   159.8384    72.5855 H            1 FAD901   0.0000
    80 H27         20.3879   157.6463    71.5317 H            1 FAD901   0.0000
    81 H4'         21.8051   159.1652    73.9467 H            1 FAD901   0.0000
    82 H29         21.3932   161.5197    74.5422 H            1 FAD901   0.0000
    83 H5'1        21.5439   160.8280    71.6752 H            1 FAD901   0.0000
    84 H5'2        22.8598   160.0078    72.1873 H            1 FAD901   0.0000
@<TRIPOS>BOND
     1    1    2      ar
     2    1    3      ar
     3    1    4       1
     4    1   53       1
     5    4    5       1
     6    5    6       1
     7    6    7       1
     8    6    8       1
     9    7   12       1
    10    8    9       1
    11    8   10       1
    12   10   11       1
    13   10   12       1
    14   12   13       1
    15   13   14       1
    16   13   22       1
    17   14   15       2
    18   15   16       1
    19   16   17      ar
    20   16   22      ar
    21   17   18       1
    22   17   19      ar
    23   19   20      ar
    24   20   21      ar
    25   21   22      ar
    26   23   24       1
    27   23   40       2
    28   24   25       2
    29   24   26       1
    30   26   27       1
    31   27   28       2
    32   27   29       1
    33   29   30       2
    34   29   40       1
    35   30   31       1
    36   31   32      ar
    37   31   38      ar
    38   32   33      ar
    39   33   34       1
    40   33   35      ar
    41   35   36       1
    42   35   37      ar
    43   37   38      ar
    44   38   39       1
    45   39   40       1
    46   39   41       1
    47   41   42       1
    48   42   43       1
    49   42   44       1
    50   44   45       1
    51   44   46       1
    52   46   47       1
    53   46   48       1
    54   48   49       1
    55   49   50       1
    56   50   51      ar
    57   50   52      ar
    58   50   53       1
    59   48   84       1
    60    5   54       1
    61    5   55       1
    62    6   56       1
    63    8   57       1
    64    9   58       1
    65   10   59       1
    66   11   60       1
    67   12   61       1
    68   14   62       1
    69   18   63       1
    70   18   64       1
    71   20   65       1
    72   26   66       1
    73   32   67       1
    74   34   68       1
    75   34   69       1
    76   34   70       1
    77   36   71       1
    78   36   72       1
    79   36   73       1
    80   37   74       1
    81   41   75       1
    82   41   76       1
    83   42   77       1
    84   43   78       1
    85   44   79       1
    86   45   80       1
    87   46   81       1
    88   47   82       1
    89   48   83       1
@<TRIPOS>SUBSTRUCTURE
     1 FAD901      1 GROUP             4 D     FAD     0 **** FAD D 901
