@<TRIPOS>MOLECULE
5iqe_GNP_3_ligand
   45    47     1     0     0
SMALL
NO_CHARGES


@<TRIPOS>ATOM
     1 PG          66.5880    29.6400    74.8690 P.3          1 GNP500   0.0000
     2 O1G         65.8850    28.4940    74.2910 O.co2        1 GNP500   0.0000
     3 O2G         68.0630    29.1770    75.3500 O.co2        1 GNP500  -1.0000
     4 O3G         65.8260    30.2400    76.0940 O.co2        1 GNP500  -1.0000
     5 N3B         66.7700    30.9220    73.8740 N.3          1 GNP500   0.0000
     6 PB          66.6680    32.4950    74.2900 P.3          1 GNP500   0.0000
     7 O1B         67.3800    32.7810    75.5230 O.co2        1 GNP500   0.0000
     8 O2B         67.3490    33.3530    73.2360 O.co2        1 GNP500  -1.0000
     9 O3A         65.1510    32.9440    74.3640 O.3          1 GNP500   0.0000
    10 PA          64.3860    34.1150    75.1290 P.3          1 GNP500   0.0000
    11 O1A         63.1910    33.5380    75.7840 O.co2        1 GNP500   0.0000
    12 O2A         65.3390    34.7690    76.0860 O.co2        1 GNP500  -1.0000
    13 O5'         64.0750    35.2210    74.0300 O.3          1 GNP500   0.0000
    14 C5'         65.1590    35.7510    73.2580 C.3          1 GNP500   0.0000
    15 C4'         64.8620    37.2180    73.1000 C.3          1 GNP500   0.0000
    16 O4'         63.5480    37.3450    72.5210 O.3          1 GNP500   0.0000
    17 C3'         64.7790    38.0530    74.3760 C.3          1 GNP500   0.0000
    18 O3'         66.0180    38.5270    74.8880 O.3          1 GNP500   0.0000
    19 C2'         63.9210    39.2330    73.9130 C.3          1 GNP500   0.0000
    20 O2'         64.6170    40.2130    73.1460 O.3          1 GNP500   0.0000
    21 C1'         62.9340    38.5400    72.9790 C.3          1 GNP500   0.0000
    22 N9          61.6460    38.2140    73.6030 N.pl3        1 GNP500   0.0000
    23 C8          61.1130    36.9780    73.8890 C.2          1 GNP500   0.0000
    24 N7          59.8940    37.0420    74.3650 N.2          1 GNP500   0.0000
    25 C5          59.6140    38.4000    74.3960 C.2          1 GNP500   0.0000
    26 C6          58.4570    39.0990    74.8230 C.2          1 GNP500   0.0000
    27 O6          57.4310    38.6360    75.3220 O.2          1 GNP500   0.0000
    28 N1          58.5930    40.4590    74.6850 N.pl3        1 GNP500   0.0000
    29 C2          59.6970    41.0980    74.2220 C.2          1 GNP500   0.0000
    30 N2          59.6900    42.4180    74.2930 N.pl3        1 GNP500   0.0000
    31 N3          60.7830    40.4630    73.8020 N.2          1 GNP500   0.0000
    32 C4          60.6790    39.1250    73.9290 C.2          1 GNP500   0.0000
    33 H3B         67.6824    30.8165    73.4786 H            1 GNP500   0.0000
    34 H5'1        65.2020    35.3050    72.3640 H            1 GNP500   0.0000
    35 H5'2        66.0265    35.6199    73.7379 H            1 GNP500   0.0000
    36 H4'         65.5348    37.6257    72.4827 H            1 GNP500   0.0000
    37 H3'         64.2944    37.5402    75.0846 H            1 GNP500   0.0000
    38 H6          66.3940    37.8550    75.5260 H            1 GNP500   0.0000
    39 H2'         63.4463    39.6547    74.6856 H            1 GNP500   0.0000
    40 H8          64.9944    40.9085    73.7574 H            1 GNP500   0.0000
    41 H1'         62.7666    39.1348    72.1928 H            1 GNP500   0.0000
    42 H10         61.6055    36.1192    73.7480 H            1 GNP500   0.0000
    43 H11         57.8124    41.0261    74.9480 H            1 GNP500   0.0000
    44 H12         60.4775    42.9405    73.9662 H            1 GNP500   0.0000
    45 H13         58.8972    42.8941    74.6736 H            1 GNP500   0.0000
@<TRIPOS>BOND
     1    1    2      ar
     2    1    3      ar
     3    1    4      ar
     4    1    5       1
     5    5    6       1
     6    6    7      ar
     7    6    8      ar
     8    6    9       1
     9    9   10       1
    10   10   11      ar
    11   10   12      ar
    12   10   13       1
    13   13   14       1
    14   14   15       1
    15   15   16       1
    16   15   17       1
    17   16   21       1
    18   17   18       1
    19   17   19       1
    20   19   20       1
    21   19   21       1
    22   21   22       1
    23   22   23       1
    24   22   32       1
    25   23   24       2
    26   24   25       1
    27   25   26       1
    28   25   32       2
    29   26   27       2
    30   26   28       1
    31   28   29       1
    32   29   30       1
    33   29   31       2
    34   31   32       1
    35   30   45       1
    36   30   44       1
    37    5   33       1
    38   28   43       1
    39   23   42       1
    40   14   34       1
    41   14   35       1
    42   15   36       1
    43   17   37       1
    44   18   38       1
    45   19   39       1
    46   20   40       1
    47   21   41       1
@<TRIPOS>SUBSTRUCTURE
     1 GNP500      1 GROUP             4 C     GNP     0 **** GNP C 500
