@<TRIPOS>MOLECULE
3zu0_A12_1_ligand
   41    43     1     0     0
SMALL
NO_CHARGES


@<TRIPOS>ATOM
     1 PB           3.6320    77.7560    10.4020 P.3          1 A121598   0.0000
     2 O1B          4.2290    78.0520     8.9760 O.co2        1 A121598   0.0000
     3 O2B          4.8050    77.6960    11.3560 O.co2        1 A121598  -1.0000
     4 O3B          2.7080    78.8330    10.8200 O.co2        1 A121598  -1.0000
     5 PA           3.7790    74.8100    10.3130 P.3          1 A121598   0.0000
     6 O1A          5.1850    75.3230     9.9350 O.co2        1 A121598   0.0000
     7 O2A          3.2430    73.5890     9.5180 O.co2        1 A121598  -1.0000
     8 C3A          2.8550    76.2370    10.4140 C.3          1 A121598   0.0000
     9 O5'          3.9080    74.6780    11.9320 O.3          1 A121598   0.0000
    10 C5'          3.8860    73.4140    12.5000 C.3          1 A121598   0.0000
    11 C4'          4.9930    72.5350    12.2190 C.3          1 A121598   0.0000
    12 O4'          6.1770    73.1230    12.8280 O.3          1 A121598   0.0000
    13 C3'          4.8860    71.2780    12.9690 C.3          1 A121598   0.0000
    14 O3'          4.0680    70.3460    12.3920 O.3          1 A121598   0.0000
    15 C2'          6.2960    70.8050    13.0550 C.3          1 A121598   0.0000
    16 O2'          6.6610    70.1050    11.9370 O.3          1 A121598   0.0000
    17 C1'          7.0640    72.0750    13.1620 C.3          1 A121598   0.0000
    18 N9           7.5390    72.2560    14.5070 N.pl3        1 A121598   0.0000
    19 C8           6.9110    72.9350    15.4980 C.2          1 A121598   0.0000
    20 N7           7.6790    72.8470    16.5790 N.2          1 A121598   0.0000
    21 C5           8.8190    72.1170    16.2840 C.ar         1 A121598   0.0000
    22 C6           9.9730    71.7200    17.0140 C.ar         1 A121598   0.0000
    23 N6          10.1720    72.0350    18.3640 N.pl3        1 A121598   0.0000
    24 N1          10.8970    71.0170    16.3800 N.ar         1 A121598   0.0000
    25 C2          10.7590    70.6660    15.1100 C.ar         1 A121598   0.0000
    26 N3           9.6880    71.0160    14.3820 N.ar         1 A121598   0.0000
    27 C4           8.7190    71.7390    14.9600 C.ar         1 A121598   0.0000
    28 H3A1         2.2244    76.2287     9.6379 H            1 A121598   0.0000
    29 H3A2         2.3350    76.1850    11.2666 H            1 A121598   0.0000
    30 H5'1         3.0544    72.9582    12.1826 H            1 A121598   0.0000
    31 H5'2         3.8431    73.5328    13.4920 H            1 A121598   0.0000
    32 H4'          5.1113    72.3797    11.2382 H            1 A121598   0.0000
    33 H3'          4.5530    71.4767    13.8907 H            1 A121598   0.0000
    34 H7           4.3909    69.4288    12.6255 H            1 A121598   0.0000
    35 H2'          6.4277    70.2473    13.8745 H            1 A121598   0.0000
    36 H9           6.4570    69.1351    12.0696 H            1 A121598   0.0000
    37 H1'          7.8351    72.0633    12.5254 H            1 A121598   0.0000
    38 H11          6.0349    73.4122    15.4287 H            1 A121598   0.0000
    39 H12         11.0023    71.7312    18.8312 H            1 A121598   0.0000
    40 H13          9.4838    72.5638    18.8608 H            1 A121598   0.0000
    41 H14         11.4783    70.1211    14.6790 H            1 A121598   0.0000
@<TRIPOS>BOND
     1    1    2      ar
     2    1    3      ar
     3    1    4      ar
     4    1    8       1
     5    5    6      ar
     6    5    7      ar
     7    5    8       1
     8    5    9       1
     9    9   10       1
    10   10   11       1
    11   11   12       1
    12   11   13       1
    13   12   17       1
    14   13   14       1
    15   13   15       1
    16   15   16       1
    17   15   17       1
    18   17   18       1
    19   18   19       1
    20   18   27       1
    21   19   20       2
    22   20   21       1
    23   21   22      ar
    24   21   27      ar
    25   22   23       1
    26   22   24      ar
    27   24   25      ar
    28   25   26      ar
    29   26   27      ar
    30   25   41       1
    31   23   40       1
    32   23   39       1
    33    8   28       1
    34    8   29       1
    35   10   30       1
    36   10   31       1
    37   11   32       1
    38   13   33       1
    39   14   34       1
    40   15   35       1
    41   16   36       1
    42   17   37       1
    43   19   38       1
@<TRIPOS>SUBSTRUCTURE
     1 A121598     1 GROUP             4 A     A12     0 **** A12 A1598
