@<TRIPOS>MOLECULE
5hy5_FAD_2_ligand
   84    89     1     0     0
SMALL
NO_CHARGES


@<TRIPOS>ATOM
     1 PA          -1.4320    51.5400    64.5540 P.3          1 FAD601   0.0000
     2 O1A         -1.2810    50.1330    65.0990 O.co2        1 FAD601   0.0000
     3 O2A         -2.6270    51.5830    63.5490 O.co2        1 FAD601  -1.0000
     4 O5B         -1.7420    52.5980    65.8260 O.3          1 FAD601   0.0000
     5 C5B         -3.0430    53.2010    65.8860 C.3          1 FAD601   0.0000
     6 C4B         -3.4360    53.5010    67.3670 C.3          1 FAD601   0.0000
     7 O4B         -3.9560    54.7010    67.4510 O.3          1 FAD601   0.0000
     8 C3B         -4.5380    52.5210    67.8080 C.3          1 FAD601   0.0000
     9 O3B         -4.3410    52.1460    69.1300 O.3          1 FAD601   0.0000
    10 C2B         -5.8250    53.3290    67.6740 C.3          1 FAD601   0.0000
    11 O2B         -6.8460    52.8370    68.6170 O.3          1 FAD601   0.0000
    12 C1B         -5.4560    54.5470    67.9930 C.3          1 FAD601   0.0000
    13 N9A         -6.2980    55.4910    67.3740 N.pl3        1 FAD601   0.0000
    14 C8A         -6.4730    55.6520    66.0510 C.2          1 FAD601   0.0000
    15 N7A         -7.3430    56.6420    65.8760 N.2          1 FAD601   0.0000
    16 C5A         -7.7090    57.0960    67.0870 C.ar         1 FAD601   0.0000
    17 C6A         -8.5810    58.1050    67.4760 C.ar         1 FAD601   0.0000
    18 N6A         -9.4210    59.0440    66.7680 N.pl3        1 FAD601   0.0000
    19 N1A         -8.7730    58.3640    68.7670 N.ar         1 FAD601   0.0000
    20 C2A         -8.1170    57.6420    69.7160 C.ar         1 FAD601   0.0000
    21 N3A         -7.2610    56.6520    69.3460 N.ar         1 FAD601   0.0000
    22 C4A         -7.0610    56.3840    68.0110 C.ar         1 FAD601   0.0000
    23 N1           7.4910    46.9680    61.2760 N.2          1 FAD601   0.0000
    24 C2           8.7380    46.2390    61.6270 C.2          1 FAD601   0.0000
    25 O2           9.5010    46.7100    62.3620 O.2          1 FAD601   0.0000
    26 N3           9.0070    44.8940    61.0310 N.pl3        1 FAD601   0.0000
    27 C4           8.0550    44.3140    60.1180 C.2          1 FAD601   0.0000
    28 O4           8.2600    43.2700    59.6520 O.2          1 FAD601   0.0000
    29 C4X          6.7770    45.0800    59.7670 C.2          1 FAD601   0.0000
    30 N5           5.8030    44.4970    58.8430 N.2          1 FAD601   0.0000
    31 C5X          4.5570    45.2420    58.4980 C.ar         1 FAD601   0.0000
    32 C6           3.6240    44.6800    57.6050 C.ar         1 FAD601   0.0000
    33 C7           2.4610    45.3780    57.2850 C.ar         1 FAD601   0.0000
    34 C7M          1.7230    44.5110    56.3420 C.3          1 FAD601   0.0000
    35 C8           2.2190    46.6370    57.8530 C.ar         1 FAD601   0.0000
    36 C8M          0.9110    47.3780    57.4690 C.3          1 FAD601   0.0000
    37 C9           3.1450    47.1970    58.7420 C.ar         1 FAD601   0.0000
    38 C9A          4.3150    46.5000    59.0610 C.ar         1 FAD601   0.0000
    39 N10          5.3160    47.1050    60.0180 N.pl3        1 FAD601   0.0000
    40 C10          6.5270    46.3830    60.3520 C.2          1 FAD601   0.0000
    41 C1'          5.0520    48.4400    60.6170 C.3          1 FAD601   0.0000
    42 C2'          4.5480    48.2460    62.0870 C.3          1 FAD601   0.0000
    43 O2'          3.3750    47.5110    62.0810 O.3          1 FAD601   0.0000
    44 C3'          4.2880    49.6240    62.7430 C.3          1 FAD601   0.0000
    45 O3'          5.4490    50.3860    62.6980 O.3          1 FAD601   0.0000
    46 C4'          3.8510    49.4330    64.2060 C.3          1 FAD601   0.0000
    47 O4'          3.7480    48.0760    64.4960 O.3          1 FAD601   0.0000
    48 C5'          2.4870    50.1050    64.4210 C.3          1 FAD601   0.0000
    49 O5'          2.6090    51.5110    64.1910 O.3          1 FAD601   0.0000
    50 P            1.2910    52.5290    64.5370 P.3          1 FAD601   0.0000
    51 O1P          1.6040    53.9410    64.0130 O.co2        1 FAD601   0.0000
    52 O2P          1.0440    52.6110    66.0380 O.co2        1 FAD601  -1.0000
    53 O3P         -0.0820    51.9520    63.7890 O.3          1 FAD601   0.0000
    54 H5B1        -3.7144    52.5765    65.4870 H            1 FAD601   0.0000
    55 H5B2        -3.0340    54.0562    65.3678 H            1 FAD601   0.0000
    56 H4B         -2.6377    53.4224    67.9642 H            1 FAD601   0.0000
    57 H3B         -4.5590    51.7189    67.2112 H            1 FAD601   0.0000
    58 H5          -3.7628    51.3308    69.1626 H            1 FAD601   0.0000
    59 H2B         -6.1664    53.2973    66.7346 H            1 FAD601   0.0000
    60 H7          -6.4723    52.0744    69.1449 H            1 FAD601   0.0000
    61 H1B         -5.4775    54.6647    68.9858 H            1 FAD601   0.0000
    62 H8A         -6.0287    55.1224    65.3284 H            1 FAD601   0.0000
    63 H6A1        -9.9796    59.6983    67.2778 H            1 FAD601   0.0000
    64 H6A2        -9.4437    59.0395    65.7683 H            1 FAD601   0.0000
    65 H2A         -8.2644    57.8394    70.6852 H            1 FAD601   0.0000
    66 H13          9.8439    44.3993    61.2651 H            1 FAD601   0.0000
    67 H14          3.7958    43.7814    57.2012 H            1 FAD601   0.0000
    68 H7M1         0.8712    44.9605    56.0728 H            1 FAD601   0.0000
    69 H7M2         2.2843    44.3472    55.5308 H            1 FAD601   0.0000
    70 H7M3         1.5143    43.6389    56.7846 H            1 FAD601   0.0000
    71 H8M1         0.8731    48.2562    57.9459 H            1 FAD601   0.0000
    72 H8M2         0.8939    47.5340    56.4814 H            1 FAD601   0.0000
    73 H8M3         0.1230    46.8214    57.7323 H            1 FAD601   0.0000
    74 H21          2.9700    48.0939    59.1481 H            1 FAD601   0.0000
    75 H1'1         4.3532    48.9154    60.0826 H            1 FAD601   0.0000
    76 H1'2         5.8941    48.9793    60.6193 H            1 FAD601   0.0000
    77 H2'          5.2429    47.7554    62.6127 H            1 FAD601   0.0000
    78 H25          3.5440    46.6168    61.6664 H            1 FAD601   0.0000
    79 H3'          3.5635    50.0967    62.2414 H            1 FAD601   0.0000
    80 H27          6.2455    49.7821    62.7288 H            1 FAD601   0.0000
    81 H4'          4.5271    49.8520    64.8121 H            1 FAD601   0.0000
    82 H29          3.4962    47.5762    63.6673 H            1 FAD601   0.0000
    83 H5'1         2.1808    49.9458    65.3596 H            1 FAD601   0.0000
    84 H5'2         1.8206    49.7191    63.7830 H            1 FAD601   0.0000
@<TRIPOS>BOND
     1    1    2      ar
     2    1    3      ar
     3    1    4       1
     4    1   53       1
     5    4    5       1
     6    5    6       1
     7    6    7       1
     8    6    8       1
     9    7   12       1
    10    8    9       1
    11    8   10       1
    12   10   11       1
    13   10   12       1
    14   12   13       1
    15   13   14       1
    16   13   22       1
    17   14   15       2
    18   15   16       1
    19   16   17      ar
    20   16   22      ar
    21   17   18       1
    22   17   19      ar
    23   19   20      ar
    24   20   21      ar
    25   21   22      ar
    26   23   24       1
    27   23   40       2
    28   24   25       2
    29   24   26       1
    30   26   27       1
    31   27   28       2
    32   27   29       1
    33   29   30       2
    34   29   40       1
    35   30   31       1
    36   31   32      ar
    37   31   38      ar
    38   32   33      ar
    39   33   34       1
    40   33   35      ar
    41   35   36       1
    42   35   37      ar
    43   37   38      ar
    44   38   39       1
    45   39   40       1
    46   39   41       1
    47   41   42       1
    48   42   43       1
    49   42   44       1
    50   44   45       1
    51   44   46       1
    52   46   47       1
    53   46   48       1
    54   48   49       1
    55   49   50       1
    56   50   51      ar
    57   50   52      ar
    58   50   53       1
    59   48   84       1
    60    5   54       1
    61    5   55       1
    62    6   56       1
    63    8   57       1
    64    9   58       1
    65   10   59       1
    66   11   60       1
    67   12   61       1
    68   14   62       1
    69   18   63       1
    70   18   64       1
    71   20   65       1
    72   26   66       1
    73   32   67       1
    74   34   68       1
    75   34   69       1
    76   34   70       1
    77   36   71       1
    78   36   72       1
    79   36   73       1
    80   37   74       1
    81   41   75       1
    82   41   76       1
    83   42   77       1
    84   43   78       1
    85   44   79       1
    86   45   80       1
    87   46   81       1
    88   47   82       1
    89   48   83       1
@<TRIPOS>SUBSTRUCTURE
     1 FAD601      1 GROUP             4 B     FAD     0 **** FAD B 601
