@<TRIPOS>MOLECULE
3in9_H1S_1_ligand
   50    51     1     0     0
SMALL
NO_CHARGES


@<TRIPOS>ATOM
     1 C1          37.4560     1.5660    12.9600 C.3          1 H1S501   0.0000
     2 C2          38.5690     1.2970    11.9430 C.3          1 H1S501   0.0000
     3 O3          38.0170     2.2920    14.0840 O.3          1 H1S501   0.0000
     4 C4          36.3640     2.4100    12.2960 C.3          1 H1S501   0.0000
     5 O5          38.0440     0.6520    10.7710 O.3          1 H1S501   0.0000
     6 C6          39.6120     0.3770    12.5800 C.3          1 H1S501   0.0000
     7 C7          37.1920     2.0980    15.2620 C.3          1 H1S501   0.0000
     8 C8          35.9150     1.7710    10.9810 C.3          1 H1S501   0.0000
     9 O9          35.2380     2.5040    13.1730 O.3          1 H1S501   0.0000
    10 C10         37.1280     1.5160    10.0820 C.3          1 H1S501   0.0000
    11 O11         40.6920     0.1310    11.6760 O.3          1 H1S501   0.0000
    12 C12         38.0630     1.9120    16.5070 C.3          1 H1S501   0.0000
    13 O13         36.3680     3.2550    15.4840 O.3          1 H1S501   0.0000
    14 N14         34.9700     2.6720    10.3070 N.3          1 H1S501   0.0000
    15 O15         37.7800     2.7520     9.7750 O.3          1 H1S501   0.0000
    16 S16         41.8120    -0.6530    12.0950 S.o2         1 H1S501   0.0000
    17 C17         39.0730     3.0590    16.5850 C.3          1 H1S501   0.0000
    18 O18         37.2150     1.9750    17.6580 O.3          1 H1S501   0.0000
    19 C19         37.0840     4.3930    15.6980 C.2          1 H1S501   0.0000
    20 S20         34.2940     1.9450     9.0130 S.o2         1 H1S501   0.0000
    21 O21         42.2720    -0.1850    13.4440 O.co2        1 H1S501   0.0000
    22 O22         41.4080    -2.0960    12.1770 O.co2        1 H1S501   0.0000
    23 O23         42.9290    -0.5010    11.1060 O.co2        1 H1S501  -1.0000
    24 C24         38.3750     4.3720    16.2230 C.2          1 H1S501   0.0000
    25 O25         40.1390     2.8190    15.6610 O.3          1 H1S501   0.0000
    26 S26         37.4960     0.8870    18.5440 S.o2         1 H1S501   0.0000
    27 C27         36.4450     5.7430    15.3640 C.2          1 H1S501   0.0000
    28 O28         35.1950     2.0990     7.8240 O.co2        1 H1S501   0.0000
    29 O29         34.0870     0.4870     9.2960 O.co2        1 H1S501   0.0000
    30 O30         32.9710     2.5910     8.7250 O.co2        1 H1S501  -1.0000
    31 O31         36.5540     0.9410    19.7090 O.co2        1 H1S501   0.0000
    32 O32         37.3160    -0.4120    17.8140 O.co2        1 H1S501   0.0000
    33 O33         38.9080     0.9920    19.0400 O.co2        1 H1S501  -1.0000
    34 O34         35.3050     5.7410    14.8560 O.co2        1 H1S501   0.0000
    35 O35         37.1020     6.7780    15.6170 O.co2        1 H1S501  -1.0000
    36 H1          37.0692     0.6996    13.2757 H            1 H1S501   0.0000
    37 H2          39.0001     2.1612    11.6836 H            1 H1S501   0.0000
    38 H3          36.7192     3.3269    12.1140 H            1 H1S501   0.0000
    39 H4          39.1799    -0.4926    12.8188 H            1 H1S501   0.0000
    40 H5          39.9693     0.8100    13.4075 H            1 H1S501   0.0000
    41 H6          36.6121     1.2932    15.1358 H            1 H1S501   0.0000
    42 H7          35.4602     0.9018    11.1753 H            1 H1S501   0.0000
    43 H8          35.5185     2.9352    14.0306 H            1 H1S501   0.0000
    44 H9          36.8288     1.0772     9.2347 H            1 H1S501   0.0000
    45 H10         38.5373     1.0323    16.4718 H            1 H1S501   0.0000
    46 H11         34.2496     2.9313    10.9502 H            1 H1S501   0.0000
    47 H12         38.5737     2.5746     9.1931 H            1 H1S501   0.0000
    48 H13         39.4408     3.1195    17.5129 H            1 H1S501   0.0000
    49 H14         38.8571     5.2363    16.3667 H            1 H1S501   0.0000
    50 H15         40.2683     1.8336    15.5499 H            1 H1S501   0.0000
@<TRIPOS>BOND
     1    1    2       1
     2    1    3       1
     3    1    4       1
     4    2    5       1
     5    2    6       1
     6    3    7       1
     7    4    8       1
     8    4    9       1
     9    5   10       1
    10    6   11       1
    11    7   12       1
    12    7   13       1
    13    8   10       1
    14    8   14       1
    15   10   15       1
    16   11   16       1
    17   12   17       1
    18   12   18       1
    19   13   19       1
    20   14   20       1
    21   16   21      ar
    22   16   22      ar
    23   16   23      ar
    24   17   24       1
    25   17   25       1
    26   18   26       1
    27   19   24       2
    28   19   27       1
    29   20   28      ar
    30   20   29      ar
    31   20   30      ar
    32   26   31      ar
    33   26   32      ar
    34   26   33      ar
    35   27   34      ar
    36   27   35      ar
    37    1   36       1
    38    2   37       1
    39    4   38       1
    40    6   39       1
    41    6   40       1
    42    7   41       1
    43    8   42       1
    44    9   43       1
    45   10   44       1
    46   12   45       1
    47   14   46       1
    48   15   47       1
    49   17   48       1
    50   25   50       1
    51   24   49       1
@<TRIPOS>SUBSTRUCTURE
     1 H1S501      1 GROUP             4 A     H1S     0 **** H1S A 501
