@<TRIPOS>MOLECULE
1r6w_164_1_ligand
   27    27     1     0     0
SMALL
NO_CHARGES


@<TRIPOS>ATOM
     1 O1          30.0890    21.1370    12.4530 O.co2        1 164735   0.0000
     2 C7          30.1650    20.4470    13.6050 C.2          1 164735   0.0000
     3 O2          31.4600    20.4210    14.0940 O.co2        1 164735  -1.0000
     4 C2          28.9090    19.7550    14.3190 C.3          1 164735   0.0000
     5 C3          29.2110    19.8540    15.7320 C.3          1 164735   0.0000
     6 C4          28.5120    20.7760    16.6750 C.2          1 164735   0.0000
     7 C5          27.3720    21.4820    16.2910 C.2          1 164735   0.0000
     8 C6          26.8830    21.3630    14.8340 C.2          1 164735   0.0000
     9 O9          28.7000    18.4960    16.1140 O.3          1 164735   0.0000
    10 C1          27.6080    20.4950    13.8540 C.2          1 164735   0.0000
    11 C8          27.1370    20.2730    12.5070 C.2          1 164735   0.0000
    12 O3          27.6010    19.3950    11.7400 O.2          1 164735   0.0000
    13 C9          25.8840    21.1420    12.1690 C.3          1 164735   0.0000
    14 C10         25.3380    20.7750    10.8020 C.3          1 164735   0.0000
    15 C11         26.2620    21.2830     9.6610 C.2          1 164735   0.0000
    16 O5          27.2240    22.0770     9.8200 O.co2        1 164735   0.0000
    17 O4          25.9750    20.7760     8.5520 O.co2        1 164735  -1.0000
    18 H1          28.8605    18.7922    14.0531 H            1 164735   0.0000
    19 H2          30.2001    19.9025    15.8712 H            1 164735   0.0000
    20 H3          28.8688    20.8900    17.6022 H            1 164735   0.0000
    21 H4          26.8814    22.0543    16.9482 H            1 164735   0.0000
    22 H5          26.0731    21.8710    14.5407 H            1 164735   0.0000
    23 H6          28.8217    18.3584    17.0970 H            1 164735   0.0000
    24 H7          26.1426    22.1080    12.1719 H            1 164735   0.0000
    25 H8          25.1777    20.9840    12.8591 H            1 164735   0.0000
    26 H9          24.4327    21.1856    10.6934 H            1 164735   0.0000
    27 H10         25.2624    19.7798    10.7394 H            1 164735   0.0000
@<TRIPOS>BOND
     1    1    2      ar
     2    2    3      ar
     3    2    4       1
     4    4    5       1
     5    4   10       1
     6    5    6       1
     7    5    9       1
     8    6    7       2
     9    7    8       1
    10    8   10       2
    11   10   11       1
    12   11   12       2
    13   11   13       1
    14   13   14       1
    15   14   15       1
    16   15   16      ar
    17   15   17      ar
    18   14   27       1
    19    4   18       1
    20    5   19       1
    21    6   20       1
    22    7   21       1
    23    8   22       1
    24    9   23       1
    25   13   24       1
    26   13   25       1
    27   14   26       1
@<TRIPOS>SUBSTRUCTURE
     1 164735      1 GROUP             4 A     164     0 **** 164 A 735
