@<TRIPOS>MOLECULE
3dl0_AP5_1_ligand
   81    86     1     0     0
SMALL
NO_CHARGES


@<TRIPOS>ATOM
     1 PA           7.8480    -6.9940    31.1530 P.3          1 AP5218   0.0000
     2 O1A          8.7060    -6.9700    29.9230 O.co2        1 AP5218   0.0000
     3 O2A          8.3390    -6.4340    32.4270 O.co2        1 AP5218  -1.0000
     4 O3A          6.4380    -6.4170    30.7000 O.3          1 AP5218   0.0000
     5 PB           6.0150    -4.9220    30.4140 P.3          1 AP5218   0.0000
     6 O1B          5.1770    -4.9470    29.1950 O.co2        1 AP5218   0.0000
     7 O2B          7.1830    -4.0080    30.4710 O.co2        1 AP5218  -1.0000
     8 O3B          5.0860    -4.7020    31.6930 O.3          1 AP5218   0.0000
     9 PG           4.9160    -3.4150    32.6770 P.3          1 AP5218   0.0000
    10 O1G          4.1740    -3.9040    33.8230 O.co2        1 AP5218   0.0000
    11 O2G          6.1860    -2.7030    32.8760 O.co2        1 AP5218  -1.0000
    12 O3G          3.9590    -2.5920    31.7750 O.3          1 AP5218   0.0000
    13 PD           2.9690    -1.4720    32.1780 P.3          1 AP5218   0.0000
    14 O1D          2.7530    -0.7340    30.9160 O.co2        1 AP5218   0.0000
    15 O2D          1.8220    -2.0680    32.9300 O.co2        1 AP5218  -1.0000
    16 O3D          3.7230    -0.5980    33.3180 O.3          1 AP5218   0.0000
    17 PE           4.7870     0.6200    33.1040 P.3          1 AP5218   0.0000
    18 O1E          5.8690     0.3770    34.0480 O.co2        1 AP5218   0.0000
    19 O2E          5.0610     0.8350    31.6830 O.co2        1 AP5218  -1.0000
    20 O5F          7.3870    -8.4660    31.3790 O.3          1 AP5218   0.0000
    21 C5F          6.4810    -8.8030    32.4720 C.3          1 AP5218   0.0000
    22 C4F          6.7030   -10.2480    32.9760 C.3          1 AP5218   0.0000
    23 O4F          6.5070   -11.2170    31.9160 O.3          1 AP5218   0.0000
    24 C3F          8.1500   -10.3890    33.4250 C.3          1 AP5218   0.0000
    25 O3F          8.0920   -11.1930    34.5980 O.3          1 AP5218   0.0000
    26 C2F          8.8540   -11.0950    32.2710 C.3          1 AP5218   0.0000
    27 O2F          9.8920   -11.9530    32.7480 O.3          1 AP5218   0.0000
    28 C1F          7.7430   -11.9220    31.6390 C.3          1 AP5218   0.0000
    29 N9A          7.8120   -12.0520    30.1720 N.pl3        1 AP5218   0.0000
    30 C8A          8.1570   -11.1370    29.2450 C.2          1 AP5218   0.0000
    31 N7A          8.0640   -11.6680    28.0230 N.2          1 AP5218   0.0000
    32 C5A          7.6350   -12.9280    28.1750 C.ar         1 AP5218   0.0000
    33 C6A          7.3440   -13.9620    27.2790 C.ar         1 AP5218   0.0000
    34 N6A          7.4890   -13.7620    25.9540 N.pl3        1 AP5218   0.0000
    35 N1A          6.9120   -15.1390    27.7750 N.ar         1 AP5218   0.0000
    36 C2A          6.7840   -15.3300    29.0900 C.ar         1 AP5218   0.0000
    37 N3A          7.0460   -14.3760    29.9780 N.ar         1 AP5218   0.0000
    38 C4A          7.4750   -13.1670    29.5280 C.ar         1 AP5218   0.0000
    39 O5J          3.9360     1.8700    33.7280 O.3          1 AP5218   0.0000
    40 C5J          3.7440     1.9060    35.1280 C.3          1 AP5218   0.0000
    41 C4J          2.6830     2.9740    35.4170 C.3          1 AP5218   0.0000
    42 O4J          3.1490     4.2700    35.0180 O.3          1 AP5218   0.0000
    43 C3J          1.3800     2.7870    34.6180 C.3          1 AP5218   0.0000
    44 O3J          0.5270     1.8150    35.2450 O.3          1 AP5218   0.0000
    45 C2J          0.7860     4.1900    34.7130 C.3          1 AP5218   0.0000
    46 O2J          0.2680     4.4320    36.0440 O.3          1 AP5218   0.0000
    47 C1J          2.0510     5.0350    34.5050 C.3          1 AP5218   0.0000
    48 N9B          2.3820     5.3230    33.0740 N.pl3        1 AP5218   0.0000
    49 C8B          3.3810     4.8140    32.3590 C.2          1 AP5218   0.0000
    50 N7B          3.3550     5.3250    31.1120 N.2          1 AP5218   0.0000
    51 C5B          2.3480     6.2120    31.0780 C.ar         1 AP5218   0.0000
    52 C6B          1.8380     7.0570    30.0890 C.ar         1 AP5218   0.0000
    53 N6B          2.3630     7.0950    28.8670 N.pl3        1 AP5218   0.0000
    54 N1B          0.7900     7.8280    30.4330 N.ar         1 AP5218   0.0000
    55 C2B          0.2470     7.8110    31.6370 C.ar         1 AP5218   0.0000
    56 N3B          0.6780     7.0020    32.5920 N.ar         1 AP5218   0.0000
    57 C4B          1.7450     6.2190    32.3190 C.ar         1 AP5218   0.0000
    58 H5F1         5.5383    -8.7134    32.1505 H            1 AP5218   0.0000
    59 H5F2         6.6368    -8.1685    33.2290 H            1 AP5218   0.0000
    60 H4F          6.0864   -10.4440    33.7385 H            1 AP5218   0.0000
    61 H3F          8.5622    -9.4976    33.6135 H            1 AP5218   0.0000
    62 H5           9.0163   -11.3302    34.9541 H            1 AP5218   0.0000
    63 H2F          9.2163   -10.4304    31.6175 H            1 AP5218   0.0000
    64 H7           9.7019   -12.8939    32.4677 H            1 AP5218   0.0000
    65 H1F          7.7163   -12.8295    32.0583 H            1 AP5218   0.0000
    66 H8A          8.4408   -10.1987    29.4428 H            1 AP5218   0.0000
    67 H6A1         7.2816   -14.4996    25.3114 H            1 AP5218   0.0000
    68 H6A2         7.8039   -12.8760    25.6136 H            1 AP5218   0.0000
    69 H2A          6.4797   -16.2239    29.4193 H            1 AP5218   0.0000
    70 H5J1         4.6014     2.1434    35.5847 H            1 AP5218   0.0000
    71 H5J2         3.4290     1.0143    35.4530 H            1 AP5218   0.0000
    72 H4J          2.4757     2.9813    36.3952 H            1 AP5218   0.0000
    73 H3J          1.5715     2.5398    33.6682 H            1 AP5218   0.0000
    74 H17         -0.4289     2.0369    35.0527 H            1 AP5218   0.0000
    75 H2J          0.0999     4.3577    34.0051 H            1 AP5218   0.0000
    76 H19         -0.7110     4.6285    35.9900 H            1 AP5218   0.0000
    77 H1J          1.9711     5.8930    35.0123 H            1 AP5218   0.0000
    78 H8B          4.0506     4.1520    32.6957 H            1 AP5218   0.0000
    79 H6B1         1.9795     7.7087    28.1769 H            1 AP5218   0.0000
    80 H6B2         3.1411     6.5098    28.6387 H            1 AP5218   0.0000
    81 H2B         -0.5141     8.4291    31.8334 H            1 AP5218   0.0000
@<TRIPOS>BOND
     1    1    2      ar
     2    1    3      ar
     3    1    4       1
     4    1   20       1
     5    4    5       1
     6    5    6      ar
     7    5    7      ar
     8    5    8       1
     9    8    9       1
    10    9   10      ar
    11    9   11      ar
    12    9   12       1
    13   12   13       1
    14   13   14      ar
    15   13   15      ar
    16   13   16       1
    17   16   17       1
    18   17   18      ar
    19   17   19      ar
    20   17   39       1
    21   20   21       1
    22   21   22       1
    23   22   23       1
    24   22   24       1
    25   23   28       1
    26   24   25       1
    27   24   26       1
    28   26   27       1
    29   26   28       1
    30   28   29       1
    31   29   30       1
    32   29   38       1
    33   30   31       2
    34   31   32       1
    35   32   33      ar
    36   32   38      ar
    37   33   34       1
    38   33   35      ar
    39   35   36      ar
    40   36   37      ar
    41   37   38      ar
    42   39   40       1
    43   40   41       1
    44   41   42       1
    45   41   43       1
    46   42   47       1
    47   43   44       1
    48   43   45       1
    49   45   46       1
    50   45   47       1
    51   47   48       1
    52   48   49       1
    53   48   57       1
    54   49   50       2
    55   50   51       1
    56   51   52      ar
    57   51   57      ar
    58   52   53       1
    59   52   54      ar
    60   54   55      ar
    61   55   56      ar
    62   56   57      ar
    63   55   81       1
    64   53   80       1
    65   53   79       1
    66   49   78       1
    67   47   77       1
    68   21   58       1
    69   21   59       1
    70   22   60       1
    71   24   61       1
    72   25   62       1
    73   26   63       1
    74   27   64       1
    75   28   65       1
    76   30   66       1
    77   34   67       1
    78   34   68       1
    79   36   69       1
    80   40   70       1
    81   40   71       1
    82   41   72       1
    83   43   73       1
    84   44   74       1
    85   45   75       1
    86   46   76       1
@<TRIPOS>SUBSTRUCTURE
     1 AP5218      1 GROUP             4 A     AP5     0 **** AP5 A 218
