@<TRIPOS>MOLECULE
1cl0_FAD_1_ligand
   84    89     1     0     0
SMALL
NO_CHARGES


@<TRIPOS>ATOM
     1 PA          25.0730    31.3530   -12.9070 P.3          1 FAD500   0.0000
     2 O1A         26.4490    31.2500   -13.4830 O.co2        1 FAD500   0.0000
     3 O2A         24.5280    30.1970   -12.1620 O.co2        1 FAD500  -1.0000
     4 O5B         24.0060    31.5350   -14.1100 O.3          1 FAD500   0.0000
     5 C5B         24.1320    32.4820   -15.1550 C.3          1 FAD500   0.0000
     6 C4B         22.9740    32.3840   -16.1000 C.3          1 FAD500   0.0000
     7 O4B         22.9350    33.5030   -16.9980 O.3          1 FAD500   0.0000
     8 C3B         23.0140    31.1170   -16.9250 C.3          1 FAD500   0.0000
     9 O3B         21.6550    30.6780   -17.0340 O.3          1 FAD500   0.0000
    10 C2B         23.6270    31.6220   -18.2280 C.3          1 FAD500   0.0000
    11 O2B         23.2460    30.8050   -19.3500 O.3          1 FAD500   0.0000
    12 C1B         23.0090    33.0010   -18.3310 C.3          1 FAD500   0.0000
    13 N9A         23.7500    33.9250   -19.2180 N.pl3        1 FAD500   0.0000
    14 C8A         25.1100    34.1250   -19.3640 C.2          1 FAD500   0.0000
    15 N7A         25.4240    34.9950   -20.3080 N.2          1 FAD500   0.0000
    16 C5A         24.1780    35.3930   -20.8120 C.ar         1 FAD500   0.0000
    17 C6A         23.8140    36.2750   -21.8580 C.ar         1 FAD500   0.0000
    18 N6A         24.7080    37.0080   -22.5530 N.pl3        1 FAD500   0.0000
    19 N1A         22.4880    36.3780   -22.1110 N.ar         1 FAD500   0.0000
    20 C2A         21.5930    35.6910   -21.3990 C.ar         1 FAD500   0.0000
    21 N3A         21.8090    34.8550   -20.4060 N.ar         1 FAD500   0.0000
    22 C4A         23.1520    34.7470   -20.1570 C.ar         1 FAD500   0.0000
    23 N1          26.8720    27.2060    -4.9150 N.2          1 FAD500   0.0000
    24 C2          26.4420    26.9190    -3.6670 C.2          1 FAD500   0.0000
    25 O2          26.0360    27.8250    -2.9250 O.2          1 FAD500   0.0000
    26 N3          26.5240    25.6180    -3.2440 N.pl3        1 FAD500   0.0000
    27 C4          27.0230    24.5610    -3.9820 C.2          1 FAD500   0.0000
    28 O4          27.1210    23.4490    -3.4450 O.2          1 FAD500   0.0000
    29 C4X         27.4620    24.9200    -5.2960 C.2          1 FAD500   0.0000
    30 N5          27.9940    23.9080    -6.1750 N.2          1 FAD500   0.0000
    31 C5X         28.9690    24.3700    -7.1510 C.ar         1 FAD500   0.0000
    32 C6          30.0240    23.5520    -7.6010 C.ar         1 FAD500   0.0000
    33 C7          31.0410    24.0910    -8.4230 C.ar         1 FAD500   0.0000
    34 C7M         32.1770    23.1830    -8.8560 C.3          1 FAD500   0.0000
    35 C8          31.0080    25.4690    -8.8120 C.ar         1 FAD500   0.0000
    36 C8M         32.1240    26.1470    -9.5830 C.3          1 FAD500   0.0000
    37 C9          29.9340    26.2550    -8.3630 C.ar         1 FAD500   0.0000
    38 C9A         28.9130    25.7360    -7.5360 C.ar         1 FAD500   0.0000
    39 N10         27.9060    26.6120    -6.9790 N.pl3        1 FAD500   0.0000
    40 C10         27.3850    26.2300    -5.7430 C.2          1 FAD500   0.0000
    41 C1'         27.2720    27.6110    -7.8580 C.3          1 FAD500   0.0000
    42 C2'         27.9840    28.9150    -7.6620 C.3          1 FAD500   0.0000
    43 O2'         28.0710    29.1790    -6.2600 O.3          1 FAD500   0.0000
    44 C3'         27.5860    30.1420    -8.4650 C.3          1 FAD500   0.0000
    45 O3'         28.2850    31.2250    -7.8340 O.3          1 FAD500   0.0000
    46 C4'         26.0740    30.4350    -8.6020 C.3          1 FAD500   0.0000
    47 O4'         25.4380    29.5220    -9.4990 O.3          1 FAD500   0.0000
    48 C5'         25.9050    31.8250    -9.1990 C.3          1 FAD500   0.0000
    49 O5'         24.5650    32.1890    -9.4890 O.3          1 FAD500   0.0000
    50 P           24.2170    33.1990   -10.6730 P.3          1 FAD500   0.0000
    51 O1P         22.7540    33.2130   -10.7870 O.co2        1 FAD500   0.0000
    52 O2P         24.8290    34.5040   -10.3610 O.co2        1 FAD500  -1.0000
    53 O3P         24.9680    32.7060   -12.0220 O.3          1 FAD500   0.0000
    54 H5B1        24.9800    32.3077   -15.6556 H            1 FAD500   0.0000
    55 H5B2        24.1592    33.4017   -14.7632 H            1 FAD500   0.0000
    56 H4B         22.1302    32.3826   -15.5634 H            1 FAD500   0.0000
    57 H3B         23.5895    30.4204   -16.4966 H            1 FAD500   0.0000
    58 H5          21.2373    31.0851   -17.8463 H            1 FAD500   0.0000
    59 H2B         24.6224    31.6825   -18.1533 H            1 FAD500   0.0000
    60 H7          22.2507    30.8149   -19.4468 H            1 FAD500   0.0000
    61 H1B         22.0783    32.9039   -18.6836 H            1 FAD500   0.0000
    62 H8A         25.7937    33.6544   -18.8063 H            1 FAD500   0.0000
    63 H6A1        24.3963    37.6161   -23.2831 H            1 FAD500   0.0000
    64 H6A2        25.6825    36.9433   -22.3382 H            1 FAD500   0.0000
    65 H2A         20.6355    35.8290   -21.6523 H            1 FAD500   0.0000
    66 H13         26.1944    25.4159    -2.3218 H            1 FAD500   0.0000
    67 H14         30.0539    22.5875    -7.3385 H            1 FAD500   0.0000
    68 H7M1        32.8153    23.6976    -9.4285 H            1 FAD500   0.0000
    69 H7M2        32.6561    22.8400    -8.0480 H            1 FAD500   0.0000
    70 H7M3        31.8083    22.4130    -9.3768 H            1 FAD500   0.0000
    71 H8M1        31.8848    27.1048    -9.7426 H            1 FAD500   0.0000
    72 H8M2        32.9715    26.0988    -9.0544 H            1 FAD500   0.0000
    73 H8M3        32.2517    25.6846   -10.4604 H            1 FAD500   0.0000
    74 H21         29.8906    27.2154    -8.6383 H            1 FAD500   0.0000
    75 H1'1        26.3066    27.7115    -7.6173 H            1 FAD500   0.0000
    76 H1'2        27.3492    27.3218    -8.8121 H            1 FAD500   0.0000
    77 H2'         28.9264    28.7293    -7.9402 H            1 FAD500   0.0000
    78 H25         27.6381    28.4337    -5.7530 H            1 FAD500   0.0000
    79 H3'         27.9593    30.0358    -9.3866 H            1 FAD500   0.0000
    80 H27         28.4910    31.9295    -8.5132 H            1 FAD500   0.0000
    81 H4'         25.6353    30.3932    -7.7043 H            1 FAD500   0.0000
    82 H29         25.0313    30.0297   -10.2585 H            1 FAD500   0.0000
    83 H5'1        26.4290    31.8640   -10.0498 H            1 FAD500   0.0000
    84 H5'2        26.2742    32.4896    -8.5494 H            1 FAD500   0.0000
@<TRIPOS>BOND
     1    1    2      ar
     2    1    3      ar
     3    1    4       1
     4    1   53       1
     5    4    5       1
     6    5    6       1
     7    6    7       1
     8    6    8       1
     9    7   12       1
    10    8    9       1
    11    8   10       1
    12   10   11       1
    13   10   12       1
    14   12   13       1
    15   13   14       1
    16   13   22       1
    17   14   15       2
    18   15   16       1
    19   16   17      ar
    20   16   22      ar
    21   17   18       1
    22   17   19      ar
    23   19   20      ar
    24   20   21      ar
    25   21   22      ar
    26   23   24       1
    27   23   40       2
    28   24   25       2
    29   24   26       1
    30   26   27       1
    31   27   28       2
    32   27   29       1
    33   29   30       2
    34   29   40       1
    35   30   31       1
    36   31   32      ar
    37   31   38      ar
    38   32   33      ar
    39   33   34       1
    40   33   35      ar
    41   35   36       1
    42   35   37      ar
    43   37   38      ar
    44   38   39       1
    45   39   40       1
    46   39   41       1
    47   41   42       1
    48   42   43       1
    49   42   44       1
    50   44   45       1
    51   44   46       1
    52   46   47       1
    53   46   48       1
    54   48   49       1
    55   49   50       1
    56   50   51      ar
    57   50   52      ar
    58   50   53       1
    59   48   84       1
    60    5   54       1
    61    5   55       1
    62    6   56       1
    63    8   57       1
    64    9   58       1
    65   10   59       1
    66   11   60       1
    67   12   61       1
    68   14   62       1
    69   18   63       1
    70   18   64       1
    71   20   65       1
    72   26   66       1
    73   32   67       1
    74   34   68       1
    75   34   69       1
    76   34   70       1
    77   36   71       1
    78   36   72       1
    79   36   73       1
    80   37   74       1
    81   41   75       1
    82   41   76       1
    83   42   77       1
    84   43   78       1
    85   44   79       1
    86   45   80       1
    87   46   81       1
    88   47   82       1
    89   48   83       1
@<TRIPOS>SUBSTRUCTURE
     1 FAD500      1 GROUP             4 A     FAD     0 **** FAD A 500
