@<TRIPOS>MOLECULE
3l4d_TPF_1_ligand
   34    36     1     0     0
SMALL
NO_CHARGES


@<TRIPOS>ATOM
     1 O           30.7300   -28.2030    -1.4180 O.3          1 TPF490   0.0000
     2 C1          31.9170   -28.9600    -1.6580 C.3          1 TPF490   0.0000
     3 C2          32.3460   -28.7000    -3.1040 C.3          1 TPF490   0.0000
     4 C5          33.0090   -28.5460    -0.6800 C.3          1 TPF490   0.0000
     5 C8          31.6360   -30.4000    -1.3460 C.ar         1 TPF490   0.0000
     6 N1          32.4150   -27.2300    -3.2470 N.pl3        1 TPF490   0.0000
     7 C3          33.6010   -26.7710    -3.9450 C.2          1 TPF490   0.0000
     8 N3          31.3090   -26.6910    -3.9410 N.2          1 TPF490   0.0000
     9 N2          33.1620   -25.9830    -4.9550 N.2          1 TPF490   0.0000
    10 C4          31.8040   -25.9380    -4.9530 C.2          1 TPF490   0.0000
    11 N4          32.5380   -27.6380     0.3800 N.pl3        1 TPF490   0.0000
    12 C6          31.1980   -27.8890     0.9120 C.2          1 TPF490   0.0000
    13 N6          33.4090   -27.6830     1.4850 N.2          1 TPF490   0.0000
    14 N5          31.3100   -28.0070     2.2620 N.2          1 TPF490   0.0000
    15 C7          32.6300   -27.8930     2.5850 C.2          1 TPF490   0.0000
    16 C9          30.3260   -30.8520    -1.2970 C.ar         1 TPF490   0.0000
    17 C13         32.6830   -31.2640    -1.0630 C.ar         1 TPF490   0.0000
    18 C10         30.0660   -32.1790    -0.9870 C.ar         1 TPF490   0.0000
    19 C11         31.1160   -33.0490    -0.7150 C.ar         1 TPF490   0.0000
    20 F1          30.8590   -34.3340    -0.4150 F            1 TPF490   0.0000
    21 C12         32.4280   -32.5930    -0.7530 C.ar         1 TPF490   0.0000
    22 F2          33.9560   -30.8240    -1.0990 F            1 TPF490   0.0000
    23 H1          30.4822   -27.7002    -2.2461 H            1 TPF490   0.0000
    24 H2          31.6745   -29.0804    -3.7400 H            1 TPF490   0.0000
    25 H3          33.2412   -29.1092    -3.2803 H            1 TPF490   0.0000
    26 H4          33.7339   -28.0851    -1.1920 H            1 TPF490   0.0000
    27 H5          33.3771   -29.3702    -0.2497 H            1 TPF490   0.0000
    28 H6          34.5511   -26.9919    -3.7247 H            1 TPF490   0.0000
    29 H7          31.2488   -25.4224    -5.6056 H            1 TPF490   0.0000
    30 H8          30.3543   -27.9606     0.3800 H            1 TPF490   0.0000
    31 H9          32.9849   -27.9559     3.5178 H            1 TPF490   0.0000
    32 H10         29.5711   -30.2235    -1.4845 H            1 TPF490   0.0000
    33 H11         29.1228   -32.5101    -0.9591 H            1 TPF490   0.0000
    34 H12         33.1838   -33.2182    -0.5583 H            1 TPF490   0.0000
@<TRIPOS>BOND
     1    1    2       1
     2    2    3       1
     3    2    4       1
     4    2    5       1
     5    3    6       1
     6    4   11       1
     7    5   16      ar
     8    5   17      ar
     9    6    7       1
    10    6    8       1
    11    7    9       2
    12    8   10       2
    13    9   10       1
    14   11   12       1
    15   11   13       1
    16   12   14       2
    17   13   15       2
    18   14   15       1
    19   16   18      ar
    20   17   21      ar
    21   17   22       1
    22   18   19      ar
    23   19   20       1
    24   19   21      ar
    25    1   23       1
    26    3   24       1
    27    3   25       1
    28    4   26       1
    29    4   27       1
    30    7   28       1
    31   10   29       1
    32   12   30       1
    33   15   31       1
    34   16   32       1
    35   18   33       1
    36   21   34       1
@<TRIPOS>SUBSTRUCTURE
     1 TPF490      1 GROUP             4 A     TPF     0 **** TPF A 490
