@<TRIPOS>MOLECULE
4dsh_FDA_2_ligand
   84    89     1     0     0
SMALL
NO_CHARGES


@<TRIPOS>ATOM
     1 PA          79.6690   -44.1320   -66.6370 P.3          1 FDA501   0.0000
     2 O1A         78.6390   -45.1800   -67.1510 O.co2        1 FDA501   0.0000
     3 O2A         79.5880   -43.6350   -65.2780 O.co2        1 FDA501  -1.0000
     4 O5B         81.0810   -44.5980   -66.5740 O.3          1 FDA501   0.0000
     5 C5B         82.1210   -43.9680   -65.8480 C.3          1 FDA501   0.0000
     6 C4B         83.3190   -44.9140   -65.7020 C.3          1 FDA501   0.0000
     7 O4B         84.4540   -44.2820   -65.1550 O.3          1 FDA501   0.0000
     8 C3B         83.0490   -46.0880   -64.8160 C.3          1 FDA501   0.0000
     9 O3B         83.4240   -47.2410   -65.4440 O.3          1 FDA501   0.0000
    10 C2B         83.8710   -45.8680   -63.6050 C.3          1 FDA501   0.0000
    11 O2B         84.2680   -47.0540   -63.0200 O.3          1 FDA501   0.0000
    12 C1B         85.0080   -45.1030   -64.1630 C.3          1 FDA501   0.0000
    13 N9A         85.6590   -44.3020   -63.1500 N.pl3        1 FDA501   0.0000
    14 C8A         85.0890   -43.3620   -62.3160 C.2          1 FDA501   0.0000
    15 N7A         86.0340   -42.8330   -61.5260 N.2          1 FDA501   0.0000
    16 C5A         87.2610   -43.4180   -61.8130 C.ar         1 FDA501   0.0000
    17 C6A         88.5440   -43.2450   -61.3090 C.ar         1 FDA501   0.0000
    18 N6A         88.7640   -42.2870   -60.2490 N.pl3        1 FDA501   0.0000
    19 N1A         89.5610   -43.9820   -61.8000 N.ar         1 FDA501   0.0000
    20 C2A         89.3570   -44.8910   -62.7970 C.ar         1 FDA501   0.0000
    21 N3A         88.1050   -45.0830   -63.3230 N.ar         1 FDA501   0.0000
    22 C4A         87.0500   -44.3690   -62.8610 C.ar         1 FDA501   0.0000
    23 N1          71.2890   -44.4490   -71.3230 N.2          1 FDA501   0.0000
    24 C2          70.6150   -44.7770   -72.5410 C.2          1 FDA501   0.0000
    25 O2          71.2710   -44.5380   -73.7140 O.2          1 FDA501   0.0000
    26 N3          69.3180   -45.3290   -72.5290 N.pl3        1 FDA501   0.0000
    27 C4          68.6660   -45.5630   -71.3100 C.2          1 FDA501   0.0000
    28 O4          67.3960   -46.0970   -71.2610 O.2          1 FDA501   0.0000
    29 C4X         69.3660   -45.2210   -70.0390 C.2          1 FDA501   0.0000
    30 N5          68.6930   -45.4190   -68.7930 N.2          1 FDA501   0.0000
    31 C5X         69.4420   -45.1720   -67.5750 C.ar         1 FDA501   0.0000
    32 C6          68.7940   -45.5310   -66.2890 C.ar         1 FDA501   0.0000
    33 C7          69.4750   -45.3230   -65.0830 C.ar         1 FDA501   0.0000
    34 C7M         68.7690   -45.7080   -63.8060 C.3          1 FDA501   0.0000
    35 C8          70.7910   -44.7650   -65.0990 C.ar         1 FDA501   0.0000
    36 C8M         71.5420   -44.5300   -63.8120 C.3          1 FDA501   0.0000
    37 C9          71.4110   -44.4220   -66.3300 C.ar         1 FDA501   0.0000
    38 C9A         70.6860   -44.6440   -67.6020 C.ar         1 FDA501   0.0000
    39 N10         71.3020   -44.3270   -68.8760 N.pl3        1 FDA501   0.0000
    40 C10         70.6230   -44.6900   -70.0660 C.2          1 FDA501   0.0000
    41 C1'         72.4880   -43.4730   -69.0070 C.3          1 FDA501   0.0000
    42 C2'         73.7420   -44.2950   -69.2150 C.3          1 FDA501   0.0000
    43 O2'         73.9070   -45.1980   -68.1650 O.3          1 FDA501   0.0000
    44 C3'         74.8930   -43.3070   -69.2660 C.3          1 FDA501   0.0000
    45 O3'         74.6920   -42.4790   -70.3570 O.3          1 FDA501   0.0000
    46 C4'         76.3060   -43.8650   -69.3670 C.3          1 FDA501   0.0000
    47 O4'         76.4910   -45.0380   -68.6320 O.3          1 FDA501   0.0000
    48 C5'         77.3020   -42.7970   -68.9460 C.3          1 FDA501   0.0000
    49 O5'         78.5270   -43.0750   -69.5450 O.3          1 FDA501   0.0000
    50 P           79.9170   -42.6080   -68.9110 P.3          1 FDA501   0.0000
    51 O1P         81.2070   -43.2270   -69.5770 O.co2        1 FDA501   0.0000
    52 O2P         79.6550   -41.0480   -68.9750 O.co2        1 FDA501  -1.0000
    53 O3P         79.6860   -42.7850   -67.3060 O.3          1 FDA501   0.0000
    54 H5B1        81.7850   -43.7191   -64.9396 H            1 FDA501   0.0000
    55 H5B2        82.4096   -43.1432   -66.3342 H            1 FDA501   0.0000
    56 H4B         83.5593   -45.2566   -66.6102 H            1 FDA501   0.0000
    57 H3B         82.0792   -46.1244   -64.5747 H            1 FDA501   0.0000
    58 H5          84.4011   -47.2039   -65.6533 H            1 FDA501   0.0000
    59 H2B         83.3697   -45.3086   -62.9448 H            1 FDA501   0.0000
    60 H7          84.8120   -47.5817   -63.6723 H            1 FDA501   0.0000
    61 H1B         85.6689   -45.7310   -64.5740 H            1 FDA501   0.0000
    62 H8A         84.1204   -43.1137   -62.3029 H            1 FDA501   0.0000
    63 H6A1        89.6831   -42.1538   -59.8782 H            1 FDA501   0.0000
    64 H6A2        87.9971   -41.7575   -59.8865 H            1 FDA501   0.0000
    65 H2A         90.1281   -45.4225   -63.1477 H            1 FDA501   0.0000
    66 H13         68.8626   -45.5538   -73.3904 H            1 FDA501   0.0000
    67 H14         67.8730   -45.9206   -66.2836 H            1 FDA501   0.0000
    68 H7M1        69.3610   -45.5093   -63.0249 H            1 FDA501   0.0000
    69 H7M2        67.9209   -45.1847   -63.7232 H            1 FDA501   0.0000
    70 H7M3        68.5573   -46.6852   -63.8237 H            1 FDA501   0.0000
    71 H8M1        72.4387   -44.1373   -64.0163 H            1 FDA501   0.0000
    72 H8M2        71.0249   -43.8978   -63.2350 H            1 FDA501   0.0000
    73 H8M3        71.6602   -45.3990   -63.3316 H            1 FDA501   0.0000
    74 H21         72.3321   -44.0327   -66.3377 H            1 FDA501   0.0000
    75 H1'1        72.5904   -42.9288   -68.1743 H            1 FDA501   0.0000
    76 H1'2        72.3650   -42.8637   -69.7904 H            1 FDA501   0.0000
    77 H2'         73.6823   -44.7905   -70.0816 H            1 FDA501   0.0000
    78 H25         74.8819   -45.3698   -68.0232 H            1 FDA501   0.0000
    79 H3'         74.8465   -42.7422   -68.4421 H            1 FDA501   0.0000
    80 H27         74.1555   -41.6829   -70.0769 H            1 FDA501   0.0000
    81 H4'         76.4794   -44.0791   -70.3283 H            1 FDA501   0.0000
    82 H29         77.2057   -44.8933   -67.9477 H            1 FDA501   0.0000
    83 H5'1        77.4036   -42.8039   -67.9512 H            1 FDA501   0.0000
    84 H5'2        76.9781   -41.8983   -69.2417 H            1 FDA501   0.0000
@<TRIPOS>BOND
     1    1    2      ar
     2    1    3      ar
     3    1    4       1
     4    1   53       1
     5    4    5       1
     6    5    6       1
     7    6    7       1
     8    6    8       1
     9    7   12       1
    10    8    9       1
    11    8   10       1
    12   10   11       1
    13   10   12       1
    14   12   13       1
    15   13   14       1
    16   13   22       1
    17   14   15       2
    18   15   16       1
    19   16   17      ar
    20   16   22      ar
    21   17   18       1
    22   17   19      ar
    23   19   20      ar
    24   20   21      ar
    25   21   22      ar
    26   23   24       1
    27   23   40       2
    28   24   25       2
    29   24   26       1
    30   26   27       1
    31   27   28       2
    32   27   29       1
    33   29   30       2
    34   29   40       1
    35   30   31       1
    36   31   32      ar
    37   31   38      ar
    38   32   33      ar
    39   33   34       1
    40   33   35      ar
    41   35   36       1
    42   35   37      ar
    43   37   38      ar
    44   38   39       1
    45   39   40       1
    46   39   41       1
    47   41   42       1
    48   42   43       1
    49   42   44       1
    50   44   45       1
    51   44   46       1
    52   46   47       1
    53   46   48       1
    54   48   49       1
    55   49   50       1
    56   50   51      ar
    57   50   52      ar
    58   50   53       1
    59   48   84       1
    60    5   54       1
    61    5   55       1
    62    6   56       1
    63    8   57       1
    64    9   58       1
    65   10   59       1
    66   11   60       1
    67   12   61       1
    68   14   62       1
    69   18   63       1
    70   18   64       1
    71   20   65       1
    72   26   66       1
    73   32   67       1
    74   34   68       1
    75   34   69       1
    76   34   70       1
    77   36   71       1
    78   36   72       1
    79   36   73       1
    80   37   74       1
    81   41   75       1
    82   41   76       1
    83   42   77       1
    84   43   78       1
    85   44   79       1
    86   45   80       1
    87   46   81       1
    88   47   82       1
    89   48   83       1
@<TRIPOS>SUBSTRUCTURE
     1 FDA501      1 GROUP             4 B     FDA     0 **** FDA B 501
