@<TRIPOS>MOLECULE
4j2w_FAD_1_ligand
   84    89     1     0     0
SMALL
NO_CHARGES


@<TRIPOS>ATOM
     1 PA          42.5600     6.2510    -1.0780 P.3          1 FAD401   0.0000
     2 O1A         42.5090     6.2460     0.4200 O.co2        1 FAD401   0.0000
     3 O2A         43.3230     7.4210    -1.6550 O.co2        1 FAD401  -1.0000
     4 O5B         43.1820     4.8510    -1.5170 O.3          1 FAD401   0.0000
     5 C5B         43.4310     4.6340    -2.8920 C.3          1 FAD401   0.0000
     6 C4B         44.6170     3.6880    -3.0400 C.3          1 FAD401   0.0000
     7 O4B         44.9980     3.5740    -4.3860 O.3          1 FAD401   0.0000
     8 C3B         45.8360     4.1980    -2.3020 C.3          1 FAD401   0.0000
     9 O3B         46.1840     3.2390    -1.3280 O.3          1 FAD401   0.0000
    10 C2B         46.9010     4.3600    -3.3700 C.3          1 FAD401   0.0000
    11 O2B         48.1670     3.9420    -2.9120 O.3          1 FAD401   0.0000
    12 C1B         46.3940     3.4680    -4.4670 C.3          1 FAD401   0.0000
    13 N9A         46.7730     3.9000    -5.8170 N.pl3        1 FAD401   0.0000
    14 C8A         46.7550     5.1710    -6.3340 C.2          1 FAD401   0.0000
    15 N7A         47.1440     5.1130    -7.6240 N.2          1 FAD401   0.0000
    16 C5A         47.4160     3.8190    -7.9380 C.ar         1 FAD401   0.0000
    17 C6A         47.8490     3.1920    -9.1080 C.ar         1 FAD401   0.0000
    18 N6A         47.6400     3.7760   -10.2930 N.pl3        1 FAD401   0.0000
    19 N1A         48.0240     1.8250    -9.0970 N.ar         1 FAD401   0.0000
    20 C2A         47.7780     1.0800    -7.9670 C.ar         1 FAD401   0.0000
    21 N3A         47.3480     1.7080    -6.8270 N.ar         1 FAD401   0.0000
    22 C4A         47.1710     3.0510    -6.8120 C.ar         1 FAD401   0.0000
    23 N1          35.9000    10.3150     5.4010 N.2          1 FAD401   0.0000
    24 C2          34.8840     9.8600     6.2120 C.2          1 FAD401   0.0000
    25 O2          33.9150     9.2670     5.7470 O.2          1 FAD401   0.0000
    26 N3          34.9300    10.0500     7.5720 N.pl3        1 FAD401   0.0000
    27 C4          36.0030    10.7030     8.1390 C.2          1 FAD401   0.0000
    28 O4          36.0260    10.8770     9.3490 O.2          1 FAD401   0.0000
    29 C4X         37.0300    11.1730     7.3310 C.2          1 FAD401   0.0000
    30 N5          38.0940    11.8190     7.8980 N.2          1 FAD401   0.0000
    31 C5X         39.1140    12.3030     7.0950 C.ar         1 FAD401   0.0000
    32 C6          40.1920    12.9750     7.6890 C.ar         1 FAD401   0.0000
    33 C7          41.2310    13.4560     6.8910 C.ar         1 FAD401   0.0000
    34 C7M         42.3770    14.1670     7.5490 C.3          1 FAD401   0.0000
    35 C8          41.1950    13.2730     5.4930 C.ar         1 FAD401   0.0000
    36 C8M         42.3190    13.7880     4.6420 C.3          1 FAD401   0.0000
    37 C9          40.1210    12.6000     4.9020 C.ar         1 FAD401   0.0000
    38 C9A         39.0740    12.1210     5.7030 C.ar         1 FAD401   0.0000
    39 N10         38.0000    11.4460     5.1390 N.pl3        1 FAD401   0.0000
    40 C10         36.9760    10.9780     5.9470 C.2          1 FAD401   0.0000
    41 C1'         37.9530    11.2000     3.6590 C.3          1 FAD401   0.0000
    42 C2'         38.4980     9.7800     3.4390 C.3          1 FAD401   0.0000
    43 O2'         39.7550     9.6310     4.0570 O.3          1 FAD401   0.0000
    44 C3'         38.6960     9.3680     1.9810 C.3          1 FAD401   0.0000
    45 O3'         37.5870     9.7360     1.1690 O.3          1 FAD401   0.0000
    46 C4'         38.9160     7.8480     1.8500 C.3          1 FAD401   0.0000
    47 O4'         40.0720     7.3370     2.5070 O.3          1 FAD401   0.0000
    48 C5'         38.9550     7.5050     0.3660 C.3          1 FAD401   0.0000
    49 O5'         39.5560     6.2450     0.2470 O.3          1 FAD401   0.0000
    50 P           39.7720     5.5890    -1.2040 P.3          1 FAD401   0.0000
    51 O1P         39.9210     4.1030    -0.9580 O.co2        1 FAD401   0.0000
    52 O2P         38.6360     5.9600    -2.1420 O.co2        1 FAD401  -1.0000
    53 O3P         41.1110     6.2660    -1.7670 O.3          1 FAD401   0.0000
    54 H5B1        43.6399     5.5052    -3.3362 H            1 FAD401   0.0000
    55 H5B2        42.6231     4.2276    -3.3187 H            1 FAD401   0.0000
    56 H4B         44.3684     2.7858    -2.6875 H            1 FAD401   0.0000
    57 H3B         45.6390     5.0780    -1.8699 H            1 FAD401   0.0000
    58 H5          46.3888     2.3685    -1.7755 H            1 FAD401   0.0000
    59 H2B         46.9395     5.3091    -3.6825 H            1 FAD401   0.0000
    60 H7          48.2897     2.9700    -3.1123 H            1 FAD401   0.0000
    61 H1B         46.6818     2.5234    -4.3094 H            1 FAD401   0.0000
    62 H8A         46.4970     6.0001    -5.8380 H            1 FAD401   0.0000
    63 H6A1        47.9492     3.3288   -11.1323 H            1 FAD401   0.0000
    64 H6A2        47.1745     4.6598   -10.3397 H            1 FAD401   0.0000
    65 H2A         47.9117     0.0890    -7.9772 H            1 FAD401   0.0000
    66 H13         34.1858     9.7148     8.1497 H            1 FAD401   0.0000
    67 H14         40.2161    13.1089     8.6797 H            1 FAD401   0.0000
    68 H7M1        43.0371    14.4504     6.8533 H            1 FAD401   0.0000
    69 H7M2        42.0357    14.9730     8.0327 H            1 FAD401   0.0000
    70 H7M3        42.8219    13.5514     8.1995 H            1 FAD401   0.0000
    71 H8M1        42.1350    13.5753     3.6824 H            1 FAD401   0.0000
    72 H8M2        42.3958    14.7786     4.7551 H            1 FAD401   0.0000
    73 H8M3        43.1750    13.3532     4.9216 H            1 FAD401   0.0000
    74 H21         40.0996    12.4608     3.9120 H            1 FAD401   0.0000
    75 H1'1        38.5224    11.8674     3.1790 H            1 FAD401   0.0000
    76 H1'2        37.0119    11.2647     3.3271 H            1 FAD401   0.0000
    77 H2'         37.8636     9.1333     3.8625 H            1 FAD401   0.0000
    78 H25         40.3985    10.2894     3.6666 H            1 FAD401   0.0000
    79 H3'         39.5089     9.8337     1.6312 H            1 FAD401   0.0000
    80 H27         37.9014     9.9153     0.2368 H            1 FAD401   0.0000
    81 H4'         38.1181     7.3922     2.2445 H            1 FAD401   0.0000
    82 H29         40.4091     6.5355     2.0131 H            1 FAD401   0.0000
    83 H5'1        39.4912     8.1884    -0.1295 H            1 FAD401   0.0000
    84 H5'2        38.0263     7.4778    -0.0038 H            1 FAD401   0.0000
@<TRIPOS>BOND
     1    1    2      ar
     2    1    3      ar
     3    1    4       1
     4    1   53       1
     5    4    5       1
     6    5    6       1
     7    6    7       1
     8    6    8       1
     9    7   12       1
    10    8    9       1
    11    8   10       1
    12   10   11       1
    13   10   12       1
    14   12   13       1
    15   13   14       1
    16   13   22       1
    17   14   15       2
    18   15   16       1
    19   16   17      ar
    20   16   22      ar
    21   17   18       1
    22   17   19      ar
    23   19   20      ar
    24   20   21      ar
    25   21   22      ar
    26   23   24       1
    27   23   40       2
    28   24   25       2
    29   24   26       1
    30   26   27       1
    31   27   28       2
    32   27   29       1
    33   29   30       2
    34   29   40       1
    35   30   31       1
    36   31   32      ar
    37   31   38      ar
    38   32   33      ar
    39   33   34       1
    40   33   35      ar
    41   35   36       1
    42   35   37      ar
    43   37   38      ar
    44   38   39       1
    45   39   40       1
    46   39   41       1
    47   41   42       1
    48   42   43       1
    49   42   44       1
    50   44   45       1
    51   44   46       1
    52   46   47       1
    53   46   48       1
    54   48   49       1
    55   49   50       1
    56   50   51      ar
    57   50   52      ar
    58   50   53       1
    59   48   84       1
    60    5   54       1
    61    5   55       1
    62    6   56       1
    63    8   57       1
    64    9   58       1
    65   10   59       1
    66   11   60       1
    67   12   61       1
    68   14   62       1
    69   18   63       1
    70   18   64       1
    71   20   65       1
    72   26   66       1
    73   32   67       1
    74   34   68       1
    75   34   69       1
    76   34   70       1
    77   36   71       1
    78   36   72       1
    79   36   73       1
    80   37   74       1
    81   41   75       1
    82   41   76       1
    83   42   77       1
    84   43   78       1
    85   44   79       1
    86   45   80       1
    87   46   81       1
    88   47   82       1
    89   48   83       1
@<TRIPOS>SUBSTRUCTURE
     1 FAD401      1 GROUP             4 A     FAD     0 **** FAD A 401
