@<TRIPOS>MOLECULE
4fdu_IHS_2_ligand
   42    42     1     0     0
SMALL
NO_CHARGES


@<TRIPOS>ATOM
     1 C1          26.4660    19.8150    36.2420 C.3          1 IHS501   0.0000
     2 O1          27.4010    20.7570    36.7620 O.3          1 IHS501   0.0000
     3 S1          27.0260    21.3530    38.0240 S.o2         1 IHS501   0.0000
     4 C2          27.2040    18.4760    35.9620 C.3          1 IHS501   0.0000
     5 O2          25.5640    21.6850    38.0790 O.co2        1 IHS501   0.0000
     6 S2          29.6210    18.4810    36.2900 S.o2         1 IHS501   0.0000
     7 C3          26.1780    17.4730    35.3990 C.3          1 IHS501   0.0000
     8 O3          27.8020    22.6320    38.1690 O.co2        1 IHS501   0.0000
     9 S3          26.8700    15.0910    35.6620 S.o2         1 IHS501   0.0000
    10 C4          25.5280    17.9640    34.1090 C.3          1 IHS501   0.0000
    11 O4          27.3700    20.3960    39.1380 O.co2        1 IHS501  -1.0000
    12 S4          24.3700    16.6050    32.3060 S.o2         1 IHS501   0.0000
    13 C5          24.8100    19.3090    34.4160 C.3          1 IHS501   0.0000
    14 S5          22.4780    20.0950    33.9120 S.o2         1 IHS501   0.0000
    15 C6          25.8720    20.3400    34.9130 C.3          1 IHS501   0.0000
    16 S6          25.6660    22.5530    34.1680 S.o2         1 IHS501   0.0000
    17 O12         28.5020    18.5970    35.3330 O.3          1 IHS501   0.0000
    18 O13         26.9300    16.3150    34.9220 O.3          1 IHS501   0.0000
    19 O14         24.5390    16.9780    33.7040 O.3          1 IHS501   0.0000
    20 O15         23.8480    19.8080    33.4280 O.3          1 IHS501   0.0000
    21 O16         25.2280    21.5760    35.1840 O.3          1 IHS501   0.0000
    22 O22         30.8600    18.9830    35.6270 O.co2        1 IHS501   0.0000
    23 O23         27.4760    13.9570    34.9210 O.co2        1 IHS501   0.0000
    24 O24         23.4940    15.3880    32.2790 O.co2        1 IHS501   0.0000
    25 O25         21.7560    18.8210    34.2520 O.co2        1 IHS501   0.0000
    26 O26         26.5280    21.8980    33.1260 O.co2        1 IHS501   0.0000
    27 O32         29.3960    19.2880    37.5310 O.co2        1 IHS501   0.0000
    28 O33         25.4220    14.7670    35.9200 O.co2        1 IHS501   0.0000
    29 O34         25.6740    16.2620    31.6570 O.co2        1 IHS501   0.0000
    30 O35         22.5010    20.9580    35.1450 O.co2        1 IHS501   0.0000
    31 O36         26.4580    23.6640    34.8060 O.co2        1 IHS501   0.0000
    32 O42         29.8090    17.0490    36.6620 O.co2        1 IHS501  -1.0000
    33 O43         27.6070    15.2630    36.9520 O.co2        1 IHS501  -1.0000
    34 O44         23.7670    17.7430    31.5300 O.co2        1 IHS501  -1.0000
    35 O45         21.7170    20.8180    32.8350 O.co2        1 IHS501  -1.0000
    36 O46         24.4790    23.1520    33.4660 O.co2        1 IHS501  -1.0000
    37 H1          25.7324    19.6650    36.9048 H            1 IHS501   0.0000
    38 H2          27.4113    18.1210    36.8736 H            1 IHS501   0.0000
    39 H3          25.4960    17.2161    36.0837 H            1 IHS501   0.0000
    40 H4          26.2155    18.0874    33.3933 H            1 IHS501   0.0000
    41 H5          24.2557    19.1148    35.2253 H            1 IHS501   0.0000
    42 H6          26.5918    20.4608    34.2294 H            1 IHS501   0.0000
@<TRIPOS>BOND
     1    1    2       1
     2    1    4       1
     3    1   15       1
     4    2    3       1
     5    3    5      ar
     6    3    8      ar
     7    3   11      ar
     8    4    7       1
     9    4   17       1
    10    6   17       1
    11    6   22      ar
    12    6   27      ar
    13    6   32      ar
    14    7   10       1
    15    7   18       1
    16    9   18       1
    17    9   23      ar
    18    9   28      ar
    19    9   33      ar
    20   10   13       1
    21   10   19       1
    22   12   19       1
    23   12   24      ar
    24   12   29      ar
    25   12   34      ar
    26   13   15       1
    27   13   20       1
    28   14   20       1
    29   14   25      ar
    30   14   30      ar
    31   14   35      ar
    32   15   21       1
    33   16   21       1
    34   16   26      ar
    35   16   31      ar
    36   16   36      ar
    37    1   37       1
    38    4   38       1
    39   15   42       1
    40    7   39       1
    41   10   40       1
    42   13   41       1
@<TRIPOS>SUBSTRUCTURE
     1 IHS501      1 GROUP             4 B     IHS     0 **** IHS B 501
