@<TRIPOS>MOLECULE
3pkc_Y08_1_ligand
   68    69     1     0     0
SMALL
NO_CHARGES


@<TRIPOS>ATOM
     1 N1         -25.0830    -3.8440   -11.3840 N.am         1 Y08288   0.0000
     2 O1         -25.7780     1.8460   -15.3460 O.3          1 Y08288   0.0000
     3 N2         -28.3820    -4.7900    -7.8240 N.am         1 Y08288   0.0000
     4 O2         -26.5520    -1.7170   -13.5510 O.3          1 Y08288   0.0000
     5 O3         -25.1310    -0.7100   -15.4290 O.3          1 Y08288   0.0000
     6 O4         -23.9180    -2.1920   -10.4760 O.2          1 Y08288   0.0000
     7 O5         -29.4440    -6.6510    -8.4060 O.2          1 Y08288   0.0000
     8 O6         -22.9960    -1.3710   -12.9720 O.3          1 Y08288   0.0000
     9 C01        -26.0730     2.9020   -10.6020 C.3          1 Y08288   0.0000
    10 C02        -26.3270     2.1160   -11.8640 C.2          1 Y08288   0.0000
    11 C03        -25.5180     2.0730   -12.9230 C.2          1 Y08288   0.0000
    12 C04        -25.9440     1.1720   -14.0330 C.3          1 Y08288   0.0000
    13 C05        -25.0070    -0.0460   -14.1040 C.3          1 Y08288   0.0000
    14 C06        -25.3130    -1.0540   -13.0110 C.3          1 Y08288   0.0000
    15 C07        -24.2340    -2.1010   -12.8330 C.3          1 Y08288   0.0000
    16 C08        -26.1070     1.9040    -9.4510 C.3          1 Y08288   0.0000
    17 C09        -24.7530     3.6400   -10.6570 C.3          1 Y08288   0.0000
    18 C10        -27.1700     3.9890   -10.4350 C.3          1 Y08288   0.0000
    19 C11        -24.3860    -2.7260   -11.4770 C.2          1 Y08288   0.0000
    20 C12        -25.3740    -4.5240   -10.0790 C.3          1 Y08288   0.0000
    21 C13        -26.7650    -4.1970    -9.5720 C.3          1 Y08288   0.0000
    22 C14        -26.6100    -2.7520    -9.0200 C.3          1 Y08288   0.0000
    23 C15        -27.8380    -2.3620    -8.1560 C.3          1 Y08288   0.0000
    24 C16        -28.2710    -3.4800    -7.1400 C.3          1 Y08288   0.0000
    25 C17        -27.1060    -5.2210    -8.4360 C.3          1 Y08288   0.0000
    26 C18        -29.5220    -5.5490    -7.8380 C.2          1 Y08288   0.0000
    27 C19        -30.7420    -5.1500    -6.9530 C.3          1 Y08288   0.0000
    28 C20        -32.1430    -5.7080    -7.4480 C.3          1 Y08288   0.0000
    29 C21        -31.9070    -4.2190    -7.1850 C.3          1 Y08288   0.0000
    30 C22        -21.8450    -2.2930   -13.0610 C.3          1 Y08288   0.0000
    31 H1         -25.4338    -4.2572   -12.2244 H            1 Y08288   0.0000
    32 H2         -26.3374     2.6746   -15.3684 H            1 Y08288   0.0000
    33 H3         -27.3069    -1.5868   -12.9082 H            1 Y08288   0.0000
    34 H4         -24.2605    -1.1394   -15.6694 H            1 Y08288   0.0000
    35 H5         -27.1719     1.5831   -11.9103 H            1 Y08288   0.0000
    36 H6         -24.6769     2.6119   -12.9703 H            1 Y08288   0.0000
    37 H7         -26.8917     0.8798   -13.9049 H            1 Y08288   0.0000
    38 H8         -24.0647     0.2695   -13.9922 H            1 Y08288   0.0000
    39 H9         -25.5059    -0.5919   -12.1454 H            1 Y08288   0.0000
    40 H10        -24.3069    -2.7983   -13.5460 H            1 Y08288   0.0000
    41 H11        -25.9424     2.3835    -8.5891 H            1 Y08288   0.0000
    42 H12        -27.0030     1.4611    -9.4202 H            1 Y08288   0.0000
    43 H13        -25.3979     1.2124    -9.5884 H            1 Y08288   0.0000
    44 H14        -24.6195     4.1481    -9.8061 H            1 Y08288   0.0000
    45 H15        -24.0083     2.9828   -10.7732 H            1 Y08288   0.0000
    46 H16        -24.7590     4.2768   -11.4280 H            1 Y08288   0.0000
    47 H17        -26.9996     4.5087    -9.5978 H            1 Y08288   0.0000
    48 H18        -27.1494     4.6069   -11.2210 H            1 Y08288   0.0000
    49 H19        -28.0673     3.5511   -10.3787 H            1 Y08288   0.0000
    50 H20        -24.7033    -4.2236    -9.4008 H            1 Y08288   0.0000
    51 H21        -25.2998    -5.5132   -10.2058 H            1 Y08288   0.0000
    52 H22        -27.4391    -4.2342   -10.3097 H            1 Y08288   0.0000
    53 H23        -26.5316    -2.1143    -9.7863 H            1 Y08288   0.0000
    54 H24        -25.7840    -2.7017    -8.4586 H            1 Y08288   0.0000
    55 H25        -28.6074    -2.1739    -8.7664 H            1 Y08288   0.0000
    56 H26        -27.6122    -1.5357    -7.6400 H            1 Y08288   0.0000
    57 H27        -27.5880    -3.5457    -6.4125 H            1 Y08288   0.0000
    58 H28        -29.1573    -3.2394    -6.7444 H            1 Y08288   0.0000
    59 H29        -27.2037    -6.1389    -8.8206 H            1 Y08288   0.0000
    60 H30        -26.3801    -5.2234    -7.7482 H            1 Y08288   0.0000
    61 H31        -30.5827    -5.3268    -5.9817 H            1 Y08288   0.0000
    62 H32        -32.7193    -6.2448    -6.8318 H            1 Y08288   0.0000
    63 H33        -32.2507    -6.0450    -8.3833 H            1 Y08288   0.0000
    64 H34        -31.8818    -3.5810    -7.9546 H            1 Y08288   0.0000
    65 H35        -32.3504    -3.7808    -6.4031 H            1 Y08288   0.0000
    66 H36        -21.0013    -1.7647   -13.1565 H            1 Y08288   0.0000
    67 H37        -21.7981    -2.8488   -12.2310 H            1 Y08288   0.0000
    68 H38        -21.9565    -2.8896   -13.8558 H            1 Y08288   0.0000
@<TRIPOS>BOND
     1    1   19      am
     2    1   20       1
     3    2   12       1
     4    3   24       1
     5    3   25       1
     6    3   26      am
     7    4   14       1
     8    5   13       1
     9    6   19       2
    10    7   26       2
    11    8   15       1
    12    8   30       1
    13    9   10       1
    14    9   16       1
    15    9   17       1
    16    9   18       1
    17   10   11       2
    18   11   12       1
    19   12   13       1
    20   13   14       1
    21   14   15       1
    22   15   19       1
    23   20   21       1
    24   21   22       1
    25   21   25       1
    26   22   23       1
    27   23   24       1
    28   26   27       1
    29   27   28       1
    30   27   29       1
    31   28   29       1
    32    1   31       1
    33    2   32       1
    34    4   33       1
    35    5   34       1
    36   10   35       1
    37   11   36       1
    38   12   37       1
    39   13   38       1
    40   14   39       1
    41   15   40       1
    42   16   41       1
    43   16   42       1
    44   16   43       1
    45   17   44       1
    46   17   45       1
    47   17   46       1
    48   18   47       1
    49   18   48       1
    50   18   49       1
    51   20   50       1
    52   20   51       1
    53   21   52       1
    54   22   53       1
    55   22   54       1
    56   23   55       1
    57   23   56       1
    58   24   57       1
    59   24   58       1
    60   25   59       1
    61   25   60       1
    62   27   61       1
    63   28   62       1
    64   28   63       1
    65   29   64       1
    66   29   65       1
    67   30   66       1
    68   30   67       1
    69   30   68       1
@<TRIPOS>SUBSTRUCTURE
     1 Y08288      1 GROUP             4 A     Y08     0 **** Y08 A 288
