@<TRIPOS>MOLECULE
1g41_ADP_1_ligand
   39    41     1     0     0
SMALL
NO_CHARGES


@<TRIPOS>ATOM
     1 PB          25.0570    22.3660    17.8080 P.3          1 ADP450   0.0000
     2 O1B         25.6060    20.9840    17.5460 O.co2        1 ADP450   0.0000
     3 O2B         23.6730    22.2760    18.5130 O.co2        1 ADP450  -1.0000
     4 O3B         25.0450    23.2230    16.6050 O.co2        1 ADP450  -1.0000
     5 PA          26.5540    22.4440    20.3260 P.3          1 ADP450   0.0000
     6 O1A         27.2570    23.5280    21.0070 O.co2        1 ADP450   0.0000
     7 O2A         25.3980    21.7830    20.9700 O.co2        1 ADP450  -1.0000
     8 O3A         25.9480    23.0120    18.9180 O.3          1 ADP450   0.0000
     9 O5'         27.5730    21.2720    19.9520 O.3          1 ADP450   0.0000
    10 C5'         28.8430    21.5620    19.3400 C.3          1 ADP450   0.0000
    11 C4'         30.0640    21.1510    20.1770 C.3          1 ADP450   0.0000
    12 O4'         31.1830    21.9740    19.6490 O.3          1 ADP450   0.0000
    13 C3'         30.0360    21.4560    21.6900 C.3          1 ADP450   0.0000
    14 O3'         30.6520    20.3770    22.4280 O.3          1 ADP450   0.0000
    15 C2'         30.9370    22.7450    21.9080 C.3          1 ADP450   0.0000
    16 O2'         31.9190    22.5810    22.9730 O.3          1 ADP450   0.0000
    17 C1'         31.7060    22.9190    20.5790 C.3          1 ADP450   0.0000
    18 N9          31.3920    24.3210    19.9960 N.pl3        1 ADP450   0.0000
    19 C8          30.6410    24.5850    18.9290 C.2          1 ADP450   0.0000
    20 N7          30.5380    25.8270    18.6830 N.2          1 ADP450   0.0000
    21 C5          31.2750    26.4580    19.6690 C.ar         1 ADP450   0.0000
    22 C6          31.5740    27.8360    19.9720 C.ar         1 ADP450   0.0000
    23 N6          31.1050    28.8750    19.2100 N.pl3        1 ADP450   0.0000
    24 N1          32.3600    28.0960    21.0610 N.ar         1 ADP450   0.0000
    25 C2          32.8180    27.0840    21.8020 C.ar         1 ADP450   0.0000
    26 N3          32.5900    25.7770    21.5920 N.ar         1 ADP450   0.0000
    27 C4          31.8100    25.5270    20.5070 C.ar         1 ADP450   0.0000
    28 H5'1        28.8934    22.5474    19.1776 H            1 ADP450   0.0000
    29 H5'2        28.8862    21.0775    18.4663 H            1 ADP450   0.0000
    30 H4'         30.2611    20.1814    20.0322 H            1 ADP450   0.0000
    31 H3'         29.1006    21.6163    22.0051 H            1 ADP450   0.0000
    32 H5          31.3562    19.9464    21.8634 H            1 ADP450   0.0000
    33 H2'         30.3629    23.5445    22.0846 H            1 ADP450   0.0000
    34 H7          31.8321    21.6667    23.3686 H            1 ADP450   0.0000
    35 H1'         32.6893    22.7927    20.7099 H            1 ADP450   0.0000
    36 H9          30.2019    23.8765    18.3765 H            1 ADP450   0.0000
    37 H10         31.3349    29.8172    19.4535 H            1 ADP450   0.0000
    38 H11         30.5330    28.6905    18.4107 H            1 ADP450   0.0000
    39 H12         33.3859    27.3223    22.5898 H            1 ADP450   0.0000
@<TRIPOS>BOND
     1    1    2      ar
     2    1    3      ar
     3    1    4      ar
     4    1    8       1
     5    5    6      ar
     6    5    7      ar
     7    5    8       1
     8    5    9       1
     9    9   10       1
    10   10   11       1
    11   11   12       1
    12   11   13       1
    13   12   17       1
    14   13   14       1
    15   13   15       1
    16   15   16       1
    17   15   17       1
    18   17   18       1
    19   18   19       1
    20   18   27       1
    21   19   20       2
    22   20   21       1
    23   21   22      ar
    24   21   27      ar
    25   22   23       1
    26   22   24      ar
    27   24   25      ar
    28   25   26      ar
    29   26   27      ar
    30   25   39       1
    31   23   38       1
    32   23   37       1
    33   10   28       1
    34   10   29       1
    35   11   30       1
    36   13   31       1
    37   14   32       1
    38   15   33       1
    39   16   34       1
    40   17   35       1
    41   19   36       1
@<TRIPOS>SUBSTRUCTURE
     1 ADP450      1 GROUP             4 A     ADP     0 **** ADP A 450
