@<TRIPOS>MOLECULE
3cv6_HXS_2_ligand
   42    43     1     0     0
SMALL
NO_CHARGES


@<TRIPOS>ATOM
     1 C1         -55.9280   -16.0110   -20.4330 C.ar         1 HXS351   0.0000
     2 C2         -55.7940   -17.0680   -19.5250 C.ar         1 HXS351   0.0000
     3 C3         -56.6630   -17.1270   -18.4560 C.ar         1 HXS351   0.0000
     4 C4         -57.6340   -16.1630   -18.2610 C.ar         1 HXS351   0.0000
     5 C5         -57.7780   -15.1110   -19.1480 C.ar         1 HXS351   0.0000
     6 O16        -54.8670   -18.0700   -19.6060 O.3          1 HXS351   0.0000
     7 C          -56.9120   -15.0340   -20.2500 C.ar         1 HXS351   0.0000
     8 C7         -58.8850   -14.1840   -18.7610 C.3          1 HXS351   0.0000
     9 C17        -60.2950   -14.7940   -18.9500 C.3          1 HXS351   0.0000
    10 C18        -60.3860   -16.2880   -19.2660 C.3          1 HXS351   0.0000
    11 C8         -58.8830   -12.7130   -19.2510 C.3          1 HXS351   0.0000
    12 C19        -57.9150   -12.2310   -20.3300 C.3          1 HXS351   0.0000
    13 C20        -58.1350   -10.7400   -20.5290 C.3          1 HXS351   0.0000
    14 C9         -58.7340   -11.7940   -18.0930 C.ar         1 HXS351   0.0000
    15 C14        -57.5180   -11.5990   -17.4170 C.ar         1 HXS351   0.0000
    16 C13        -57.4900   -10.7090   -16.3420 C.ar         1 HXS351   0.0000
    17 C12        -58.6510   -10.0120   -15.9710 C.ar         1 HXS351   0.0000
    18 O15        -58.6570    -9.1250   -14.9440 O.3          1 HXS351   0.0000
    19 C11        -59.8410   -10.2090   -16.6500 C.ar         1 HXS351   0.0000
    20 C10        -59.8780   -11.1010   -17.7110 C.ar         1 HXS351   0.0000
    21 H1         -55.3141   -15.9539   -21.2203 H            1 HXS351   0.0000
    22 H2         -56.5890   -17.8844   -17.8072 H            1 HXS351   0.0000
    23 H3         -58.2404   -16.2267   -17.4684 H            1 HXS351   0.0000
    24 H4         -54.8440   -18.7874   -18.9097 H            1 HXS351   0.0000
    25 H5         -56.9984   -14.2818   -20.9032 H            1 HXS351   0.0000
    26 H6         -58.7918   -14.1040   -17.7686 H            1 HXS351   0.0000
    27 H7         -60.7350   -14.3023   -19.7014 H            1 HXS351   0.0000
    28 H8         -60.8048   -14.6359   -18.1044 H            1 HXS351   0.0000
    29 H9         -61.3461   -16.5504   -19.3627 H            1 HXS351   0.0000
    30 H10        -59.9008   -16.4784   -20.1194 H            1 HXS351   0.0000
    31 H11        -59.9706   -16.8119   -18.5224 H            1 HXS351   0.0000
    32 H12        -59.7997   -12.5462   -19.6141 H            1 HXS351   0.0000
    33 H13        -58.0919   -12.7170   -21.1858 H            1 HXS351   0.0000
    34 H14        -56.9729   -12.3990   -20.0399 H            1 HXS351   0.0000
    35 H15        -57.5103   -10.4019   -21.2329 H            1 HXS351   0.0000
    36 H16        -59.0792   -10.5777   -20.8155 H            1 HXS351   0.0000
    37 H17        -57.9602   -10.2596   -19.6695 H            1 HXS351   0.0000
    38 H18        -56.6917   -12.0864   -17.6994 H            1 HXS351   0.0000
    39 H19        -56.6401   -10.5673   -15.8344 H            1 HXS351   0.0000
    40 H20        -59.5001    -8.6440   -14.7037 H            1 HXS351   0.0000
    41 H21        -60.6657    -9.7131   -16.3781 H            1 HXS351   0.0000
    42 H22        -60.7346   -11.2474   -18.2058 H            1 HXS351   0.0000
@<TRIPOS>BOND
     1    1    2      ar
     2    1    7      ar
     3    2    3      ar
     4    2    6       1
     5    3    4      ar
     6    4    5      ar
     7    5    7      ar
     8    5    8       1
     9    8    9       1
    10    8   11       1
    11    9   10       1
    12   11   12       1
    13   11   14       1
    14   12   13       1
    15   14   15      ar
    16   14   20      ar
    17   15   16      ar
    18   16   17      ar
    19   17   18       1
    20   17   19      ar
    21   19   20      ar
    22    1   21       1
    23    3   22       1
    24    4   23       1
    25    6   24       1
    26    7   25       1
    27    8   26       1
    28    9   27       1
    29    9   28       1
    30   10   29       1
    31   10   30       1
    32   10   31       1
    33   11   32       1
    34   12   33       1
    35   12   34       1
    36   13   35       1
    37   13   36       1
    38   13   37       1
    39   15   38       1
    40   16   39       1
    41   18   40       1
    42   19   41       1
    43   20   42       1
@<TRIPOS>SUBSTRUCTURE
     1 HXS351      1 GROUP             4 B     HXS     0 **** HXS B 351
