@<TRIPOS>MOLECULE
2x5w_K2B_1_ligand
   72    75     1     0     0
SMALL
NO_CHARGES


@<TRIPOS>ATOM
     1 C1          58.7750    28.4840    76.5720 C.3          1 K2B1429   0.0000
     2 C2          59.3270    27.8650    77.8630 C.3          1 K2B1429   0.0000
     3 C3          60.4960    28.6400    78.4490 C.2          1 K2B1429   0.0000
     4 C4          60.5890    30.0760    78.2130 C.2          1 K2B1429   0.0000
     5 C5          59.5840    30.7140    77.5020 C.2          1 K2B1429   0.0000
     6 C6          59.6160    32.2460    77.4190 C.3          1 K2B1429   0.0000
     7 C7          59.4790    32.6060    75.8980 C.3          1 K2B1429   0.0000
     8 C8          58.1530    32.0990    75.3390 C.3          1 K2B1429   0.0000
     9 C9          58.2170    30.5500    75.3690 C.3          1 K2B1429   0.0000
    10 C10         58.4120    29.9910    76.8050 C.3          1 K2B1429   0.0000
    11 C11         56.9950    29.9060    74.6660 C.3          1 K2B1429   0.0000
    12 C12         56.7460    30.5020    73.2130 C.3          1 K2B1429   0.0000
    13 C13         56.6140    32.0650    73.2730 C.3          1 K2B1429   0.0000
    14 C14         57.9250    32.5940    73.8710 C.3          1 K2B1429   0.0000
    15 C15         57.8690    34.1270    73.6990 C.3          1 K2B1429   0.0000
    16 C16         57.1690    34.2810    72.3170 C.3          1 K2B1429   0.0000
    17 C17         56.6570    32.8440    71.9190 C.3          1 K2B1429   0.0000
    18 C18         55.3390    32.4820    74.0830 C.3          1 K2B1429   0.0000
    19 C19         57.1480    30.2160    77.6440 C.3          1 K2B1429   0.0000
    20 C20         55.3940    32.8810    71.0380 C.3          1 K2B1429   0.0000
    21 C21         55.0190    31.4580    70.5920 C.3          1 K2B1429   0.0000
    22 C22         55.6190    33.8550    69.8220 C.3          1 K2B1429   0.0000
    23 C23         54.2810    34.0800    69.0680 C.3          1 K2B1429   0.0000
    24 C24         54.3790    35.2990    68.1230 C.3          1 K2B1429   0.0000
    25 C25         53.1470    35.6320    67.2600 C.3          1 K2B1429   0.0000
    26 C27         52.7760    34.5060    66.2790 C.3          1 K2B1429   0.0000
    27 C26         53.4600    36.9490    66.4530 C.3          1 K2B1429   0.0000
    28 O1          61.3380    28.0520    79.1740 O.2          1 K2B1429   0.0000
    29 H1          57.9542    27.9862    76.2919 H            1 K2B1429   0.0000
    30 H2          59.4664    28.4184    75.8525 H            1 K2B1429   0.0000
    31 H3          59.6317    26.9337    77.6635 H            1 K2B1429   0.0000
    32 H4          58.5926    27.8374    78.5411 H            1 K2B1429   0.0000
    33 H5          61.3697    30.5954    78.5604 H            1 K2B1429   0.0000
    34 H6          60.4805    32.5946    77.7811 H            1 K2B1429   0.0000
    35 H7          58.8556    32.6370    77.9375 H            1 K2B1429   0.0000
    36 H8          60.2311    32.1837    75.3920 H            1 K2B1429   0.0000
    37 H9          59.5216    33.5993    75.7910 H            1 K2B1429   0.0000
    38 H10         57.4022    32.4146    75.9193 H            1 K2B1429   0.0000
    39 H11         59.0253    30.2843    74.8436 H            1 K2B1429   0.0000
    40 H12         56.1811    30.0693    75.2236 H            1 K2B1429   0.0000
    41 H13         57.1525    28.9217    74.5864 H            1 K2B1429   0.0000
    42 H14         55.9032    30.1150    72.8389 H            1 K2B1429   0.0000
    43 H15         57.5153    30.2595    72.6219 H            1 K2B1429   0.0000
    44 H16         58.6785    32.2499    73.3108 H            1 K2B1429   0.0000
    45 H17         58.7869    34.5237    73.6861 H            1 K2B1429   0.0000
    46 H18         57.3317    34.5536    74.4265 H            1 K2B1429   0.0000
    47 H19         57.8183    34.6185    71.6355 H            1 K2B1429   0.0000
    48 H20         56.3995    34.9158    72.3873 H            1 K2B1429   0.0000
    49 H21         57.3788    32.4241    71.3688 H            1 K2B1429   0.0000
    50 H22         55.2726    33.4794    74.1099 H            1 K2B1429   0.0000
    51 H23         54.5251    32.1055    73.6405 H            1 K2B1429   0.0000
    52 H24         55.4057    32.1271    75.0155 H            1 K2B1429   0.0000
    53 H25         56.9861    31.1975    77.7462 H            1 K2B1429   0.0000
    54 H26         56.3649    29.7949    77.1865 H            1 K2B1429   0.0000
    55 H27         57.2689    29.8023    78.5464 H            1 K2B1429   0.0000
    56 H28         54.6417    33.2417    71.5893 H            1 K2B1429   0.0000
    57 H29         54.1987    31.4929    70.0212 H            1 K2B1429   0.0000
    58 H30         55.7735    31.0633    70.0676 H            1 K2B1429   0.0000
    59 H31         54.8410    30.8923    71.3972 H            1 K2B1429   0.0000
    60 H32         56.2885    33.4546    69.1964 H            1 K2B1429   0.0000
    61 H33         55.9608    34.7322    70.1591 H            1 K2B1429   0.0000
    62 H34         53.5526    34.2399    69.7342 H            1 K2B1429   0.0000
    63 H35         54.0674    33.2648    68.5297 H            1 K2B1429   0.0000
    64 H36         55.1447    35.1348    67.5010 H            1 K2B1429   0.0000
    65 H37         54.5744    36.1007    68.6879 H            1 K2B1429   0.0000
    66 H38         52.3681    35.8022    67.8636 H            1 K2B1429   0.0000
    67 H39         51.9730    34.7773    65.7484 H            1 K2B1429   0.0000
    68 H40         53.5430    34.3370    65.6600 H            1 K2B1429   0.0000
    69 H41         52.5709    33.6719    66.7911 H            1 K2B1429   0.0000
    70 H42         52.6728    37.1861    65.8837 H            1 K2B1429   0.0000
    71 H43         53.6461    37.6953    67.0921 H            1 K2B1429   0.0000
    72 H44         54.2597    36.8013    65.8711 H            1 K2B1429   0.0000
@<TRIPOS>BOND
     1    1    2       1
     2    1   10       1
     3    2    3       1
     4    3    4       1
     5    3   28       2
     6    4    5       2
     7    5    6       1
     8    5   10       1
     9    6    7       1
    10    7    8       1
    11    8    9       1
    12    8   14       1
    13    9   10       1
    14    9   11       1
    15   10   19       1
    16   11   12       1
    17   12   13       1
    18   13   14       1
    19   13   17       1
    20   13   18       1
    21   14   15       1
    22   15   16       1
    23   16   17       1
    24   17   20       1
    25   20   21       1
    26   20   22       1
    27   22   23       1
    28   23   24       1
    29   24   25       1
    30   25   26       1
    31   25   27       1
    32    1   29       1
    33    1   30       1
    34    2   31       1
    35    2   32       1
    36    4   33       1
    37    6   34       1
    38    6   35       1
    39    7   36       1
    40    7   37       1
    41    8   38       1
    42    9   39       1
    43   11   40       1
    44   11   41       1
    45   12   42       1
    46   12   43       1
    47   14   44       1
    48   15   45       1
    49   15   46       1
    50   16   47       1
    51   16   48       1
    52   17   49       1
    53   18   50       1
    54   18   51       1
    55   18   52       1
    56   19   53       1
    57   19   54       1
    58   19   55       1
    59   20   56       1
    60   21   57       1
    61   21   58       1
    62   21   59       1
    63   22   60       1
    64   22   61       1
    65   23   62       1
    66   23   63       1
    67   24   64       1
    68   24   65       1
    69   25   66       1
    70   26   67       1
    71   26   68       1
    72   26   69       1
    73   27   70       1
    74   27   71       1
    75   27   72       1
@<TRIPOS>SUBSTRUCTURE
     1 K2B1429     1 GROUP             4 A     K2B     0 **** K2B A1429
