@<TRIPOS>MOLECULE
3b9x_NOS_2_ligand
   31    33     1     0     0
SMALL
NO_CHARGES


@<TRIPOS>ATOM
     1 N9          15.1910    17.4400   -15.3970 N.pl3        1 NOS401   0.0000
     2 C4          15.6900    16.3510   -14.8400 C.2          1 NOS401   0.0000
     3 N3          15.4010    15.6570   -13.7120 N.pl3        1 NOS401   0.0000
     4 C2          16.1150    14.5650   -13.3870 C.2          1 NOS401   0.0000
     5 N1          17.1420    14.1140   -14.1450 N.2          1 NOS401   0.0000
     6 C6          17.5340    14.7080   -15.2860 C.2          1 NOS401   0.0000
     7 O6          18.4990    14.2560   -15.9490 O.2          1 NOS401   0.0000
     8 C5          16.7820    15.9160   -15.7220 C.2          1 NOS401   0.0000
     9 N7          16.8330    16.7850   -16.7510 N.2          1 NOS401   0.0000
    10 C8          15.8640    17.6980   -16.5460 C.2          1 NOS401   0.0000
    11 C5'         11.7600    15.8660   -16.2230 C.3          1 NOS401   0.0000
    12 O5'         12.5470    14.7790   -15.7270 O.3          1 NOS401   0.0000
    13 C4'         11.9140    17.1580   -15.4040 C.3          1 NOS401   0.0000
    14 O4'         13.0650    17.1540   -14.5330 O.3          1 NOS401   0.0000
    15 C1'         14.0230    18.1700   -14.8530 C.3          1 NOS401   0.0000
    16 C2'         13.4320    18.9640   -16.0120 C.3          1 NOS401   0.0000
    17 O2'         13.4810    20.3870   -15.7740 O.3          1 NOS401   0.0000
    18 C3'         12.0470    18.3810   -16.3190 C.3          1 NOS401   0.0000
    19 O3'         10.9860    19.3120   -16.0610 O.3          1 NOS401   0.0000
    20 H1          15.8782    14.0666   -12.5530 H            1 NOS401   0.0000
    21 H2          15.6672    18.4634   -17.1588 H            1 NOS401   0.0000
    22 H5'1        10.7980    15.5936   -16.2067 H            1 NOS401   0.0000
    23 H5'2        12.0374    16.0535   -17.1653 H            1 NOS401   0.0000
    24 H5'         12.2749    14.5720   -14.7873 H            1 NOS401   0.0000
    25 H4'         11.0949    17.2735   -14.8420 H            1 NOS401   0.0000
    26 H1'         14.2558    18.7444   -14.0683 H            1 NOS401   0.0000
    27 H2'         14.0064    18.7833   -16.8104 H            1 NOS401   0.0000
    28 H9          14.0245    20.8261   -16.4894 H            1 NOS401   0.0000
    29 H3'         12.0111    18.0893   -17.2748 H            1 NOS401   0.0000
    30 H11         10.7711    19.8132   -16.8992 H            1 NOS401   0.0000
    31 H12         14.6540    15.9583   -13.1194 H            1 NOS401   0.0000
@<TRIPOS>BOND
     1    1    2       1
     2    1   10       1
     3    1   15       1
     4    2    3       1
     5    2    8       2
     6    3    4       1
     7    4    5       2
     8    5    6       1
     9    6    7       2
    10    6    8       1
    11    8    9       1
    12    9   10       2
    13   11   12       1
    14   11   13       1
    15   13   14       1
    16   13   18       1
    17   14   15       1
    18   15   16       1
    19   16   17       1
    20   16   18       1
    21   18   19       1
    22   19   30       1
    23    4   20       1
    24   10   21       1
    25   11   22       1
    26   11   23       1
    27   12   24       1
    28   13   25       1
    29   15   26       1
    30   16   27       1
    31   17   28       1
    32   18   29       1
    33    3   31       1
@<TRIPOS>SUBSTRUCTURE
     1 NOS401      1 GROUP             4 B     NOS     0 **** NOS B 401
