@<TRIPOS>MOLECULE
3ura_IMD_1_ligand
   10    10     1     0     0
SMALL
NO_CHARGES


@<TRIPOS>ATOM
     1 N1          -9.6380    -7.9800    41.3370 N.2          1 IMD1372   1.0000
     2 C2          -9.9080    -8.7390    40.2920 C.2          1 IMD1372   0.0000
     3 N3         -10.7630    -9.6740    40.6650 N.pl3        1 IMD1372   0.0000
     4 C4         -11.0600    -9.5080    42.0000 C.2          1 IMD1372   0.0000
     5 C5         -10.3450    -8.4390    42.4160 C.2          1 IMD1372   0.0000
     6 H1          -9.0172    -7.1960    41.3404 H            1 IMD1372   0.0000
     7 H2          -9.5295    -8.6255    39.3734 H            1 IMD1372   0.0000
     8 H3         -11.6802   -10.0664    42.5509 H            1 IMD1372   0.0000
     9 H4         -10.3344    -8.0551    43.3393 H            1 IMD1372   0.0000
    10 H5         -11.1354   -10.3885    40.0728 H            1 IMD1372   0.0000
@<TRIPOS>BOND
     1    1    2       2
     2    1    5       1
     3    2    3       1
     4    3    4       1
     5    4    5       2
     6    1    6       1
     7    2    7       1
     8    4    8       1
     9    5    9       1
    10    3   10       1
@<TRIPOS>SUBSTRUCTURE
     1 IMD1372     1 GROUP             4 A     IMD     0 **** IMD A1372
