@<TRIPOS>MOLECULE
1n77_ATP_1_ligand
   43    45     1     0     0
SMALL
NO_CHARGES


@<TRIPOS>ATOM
     1 PG          40.3070    79.6550    58.4500 P.3          1 ATP600   0.0000
     2 O1G         39.1220    80.4750    57.9540 O.co2        1 ATP600   0.0000
     3 O2G         40.2500    79.5620    59.9690 O.co2        1 ATP600  -1.0000
     4 O3G         41.6040    80.3370    58.0370 O.co2        1 ATP600  -1.0000
     5 PB          38.9690    77.6240    56.9490 P.3          1 ATP600   0.0000
     6 O1B         38.1810    78.8090    56.5120 O.co2        1 ATP600   0.0000
     7 O2B         38.3120    76.5360    57.7210 O.co2        1 ATP600  -1.0000
     8 O3B         40.2560    78.1510    57.8090 O.3          1 ATP600   0.0000
     9 PA          39.9010    77.8170    54.2660 P.3          1 ATP600   0.0000
    10 O1A         40.0870    79.2350    54.6760 O.co2        1 ATP600   0.0000
    11 O2A         40.9870    77.1160    53.5290 O.co2        1 ATP600  -1.0000
    12 O3A         39.6160    76.9410    55.6150 O.3          1 ATP600   0.0000
    13 O5'         38.5470    77.7080    53.4280 O.3          1 ATP600   0.0000
    14 C5'         38.5570    77.2210    52.0860 C.3          1 ATP600   0.0000
    15 C4'         37.1960    77.3840    51.4400 C.3          1 ATP600   0.0000
    16 O4'         36.2410    76.5450    52.1500 O.3          1 ATP600   0.0000
    17 C3'         36.6400    78.8020    51.5350 C.3          1 ATP600   0.0000
    18 O3'         36.3760    79.5210    50.3320 O.3          1 ATP600   0.0000
    19 C2'         35.6500    78.8260    52.6970 C.3          1 ATP600   0.0000
    20 O2'         34.4580    79.4760    52.3030 O.3          1 ATP600   0.0000
    21 C1'         35.3170    77.3400    52.8800 C.3          1 ATP600   0.0000
    22 N9          35.2520    76.8630    54.2700 N.pl3        1 ATP600   0.0000
    23 C8          36.1330    77.1020    55.2970 C.2          1 ATP600   0.0000
    24 N7          35.7830    76.5500    56.4370 N.2          1 ATP600   0.0000
    25 C5          34.5910    75.8990    56.1420 C.ar         1 ATP600   0.0000
    26 C6          33.7060    75.1260    56.9300 C.ar         1 ATP600   0.0000
    27 N6          33.8900    74.8770    58.2310 N.pl3        1 ATP600   0.0000
    28 N1          32.6080    74.6150    56.3250 N.ar         1 ATP600   0.0000
    29 C2          32.4170    74.8720    55.0250 C.ar         1 ATP600   0.0000
    30 N3          33.1680    75.5860    54.1850 N.ar         1 ATP600   0.0000
    31 C4          34.2540    76.0780    54.8110 C.ar         1 ATP600   0.0000
    32 H5'1        38.8025    76.2516    52.0915 H            1 ATP600   0.0000
    33 H5'2        39.2337    77.7332    51.5571 H            1 ATP600   0.0000
    34 H4'         37.2426    77.1040    50.4811 H            1 ATP600   0.0000
    35 H3'         37.4170    79.3057    51.9127 H            1 ATP600   0.0000
    36 H5          37.0096    79.2214    49.6187 H            1 ATP600   0.0000
    37 H2'         36.0454    79.2292    53.5223 H            1 ATP600   0.0000
    38 H7          34.6676    80.1647    51.6090 H            1 ATP600   0.0000
    39 H1'         34.4152    77.1889    52.4750 H            1 ATP600   0.0000
    40 H9          36.9646    77.6463    55.1869 H            1 ATP600   0.0000
    41 H10         33.2262    74.3222    58.7327 H            1 ATP600   0.0000
    42 H11         34.6913    75.2456    58.7022 H            1 ATP600   0.0000
    43 H12         31.5924    74.4708    54.6262 H            1 ATP600   0.0000
@<TRIPOS>BOND
     1    1    2      ar
     2    1    3      ar
     3    1    4      ar
     4    1    8       1
     5    5    6      ar
     6    5    7      ar
     7    5    8       1
     8    5   12       1
     9    9   10      ar
    10    9   11      ar
    11    9   12       1
    12    9   13       1
    13   13   14       1
    14   14   15       1
    15   15   16       1
    16   15   17       1
    17   16   21       1
    18   17   18       1
    19   17   19       1
    20   19   20       1
    21   19   21       1
    22   21   22       1
    23   22   23       1
    24   22   31       1
    25   23   24       2
    26   24   25       1
    27   25   26      ar
    28   25   31      ar
    29   26   27       1
    30   26   28      ar
    31   28   29      ar
    32   29   30      ar
    33   30   31      ar
    34   29   43       1
    35   27   42       1
    36   27   41       1
    37   23   40       1
    38   14   32       1
    39   14   33       1
    40   15   34       1
    41   17   35       1
    42   18   36       1
    43   19   37       1
    44   20   38       1
    45   21   39       1
@<TRIPOS>SUBSTRUCTURE
     1 ATP600      1 GROUP             4 A     ATP     0 **** ATP A 600
