@<TRIPOS>MOLECULE
2vmy_FFO_1_ligand
   55    57     1     0     0
SMALL
NO_CHARGES


@<TRIPOS>ATOM
     1 N1          24.2010    28.8160     7.1820 N.2          1 FFO505   0.0000
     2 C2          25.3410    28.2560     6.7340 C.2          1 FFO505   0.0000
     3 NA2         26.0510    28.8420     5.7750 N.pl3        1 FFO505   0.0000
     4 N3          25.7840    27.0440     7.2740 N.pl3        1 FFO505   0.0000
     5 C4          25.0420    26.4220     8.2810 C.2          1 FFO505   0.0000
     6 O4          25.4820    25.2390     8.8090 O.2          1 FFO505   0.0000
     7 C4A         23.8650    27.0280     8.7200 C.2          1 FFO505   0.0000
     8 N5          23.0550    26.4910     9.7360 N.am         1 FFO505   0.0000
     9 C6          22.3240    27.4230    10.6230 C.3          1 FFO505   0.0000
    10 C7          21.5680    28.4530     9.7660 C.3          1 FFO505   0.0000
    11 N8          22.2820    28.8460     8.6070 N.pl3        1 FFO505   0.0000
    12 C8A         23.4680    28.2340     8.1520 C.2          1 FFO505   0.0000
    13 C9          23.2790    28.1520    11.5900 C.3          1 FFO505   0.0000
    14 N10         23.8020    27.2260    12.6120 N.pl3        1 FFO505   0.0000
    15 C11         27.5110    27.7030    14.4000 C.ar         1 FFO505   0.0000
    16 C12         27.3060    28.1210    13.0840 C.ar         1 FFO505   0.0000
    17 C13         26.0610    27.9660    12.4740 C.ar         1 FFO505   0.0000
    18 C14         25.0040    27.3910    13.1800 C.ar         1 FFO505   0.0000
    19 C15         25.2100    26.9730    14.4980 C.ar         1 FFO505   0.0000
    20 C16         26.4550    27.1270    15.1080 C.ar         1 FFO505   0.0000
    21 C           28.8950    27.8920    15.0480 C.2          1 FFO505   0.0000
    22 O           29.9200    27.8800    14.3650 O.2          1 FFO505   0.0000
    23 N           28.8790    28.0740    16.3690 N.am         1 FFO505   0.0000
    24 CA          30.0970    28.2870    17.1790 C.3          1 FFO505   0.0000
    25 CB          30.3450    29.7890    17.4250 C.3          1 FFO505   0.0000
    26 CG          29.0380    30.5890    17.5050 C.3          1 FFO505   0.0000
    27 CD          29.1110    31.7240    18.5260 C.2          1 FFO505   0.0000
    28 OE1         29.2060    32.8870    18.0720 O.co2        1 FFO505   0.0000
    29 OE2         29.0600    31.4050    19.7360 O.co2        1 FFO505  -1.0000
    30 CT          29.9700    27.5610    18.5240 C.2          1 FFO505   0.0000
    31 O1          31.0280    27.3980    19.1700 O.co2        1 FFO505   0.0000
    32 O2          28.8290    27.1860    18.8760 O.co2        1 FFO505  -1.0000
    33 C5A         22.9190    25.0270     9.9290 C.2          1 FFO505   0.0000
    34 O5B         21.8680    24.5390    10.3360 O.2          1 FFO505   0.0000
    35 HA21        26.8962    28.4185     5.4489 H            1 FFO505   0.0000
    36 HA22        25.7399    29.7063     5.3797 H            1 FFO505   0.0000
    37 H3          21.6600    26.9019    11.1592 H            1 FFO505   0.0000
    38 H4          21.3953    29.2650    10.3236 H            1 FFO505   0.0000
    39 H5          20.6969    28.0522     9.4821 H            1 FFO505   0.0000
    40 H6          21.9195    29.6109     8.0745 H            1 FFO505   0.0000
    41 H7          22.7833    28.8931    12.0428 H            1 FFO505   0.0000
    42 H8          24.0442    28.5317    11.0701 H            1 FFO505   0.0000
    43 H9          23.2395    26.4476    12.8907 H            1 FFO505   0.0000
    44 H10         28.0592    28.5357    12.5734 H            1 FFO505   0.0000
    45 H11         25.9261    28.2673    11.5300 H            1 FFO505   0.0000
    46 H12         24.4567    26.5591    15.0091 H            1 FFO505   0.0000
    47 H13         26.5908    26.8250    16.0516 H            1 FFO505   0.0000
    48 H14         27.9952    28.0659    16.8369 H            1 FFO505   0.0000
    49 HA          30.8802    27.9101    16.6845 H            1 FFO505   0.0000
    50 HB1         30.8982    30.1508    16.6746 H            1 FFO505   0.0000
    51 HB2         30.8410    29.8962    18.2866 H            1 FFO505   0.0000
    52 HG1         28.2977    29.9694    17.7660 H            1 FFO505   0.0000
    53 HG2         28.8445    30.9789    16.6047 H            1 FFO505   0.0000
    54 H5A         23.6939    24.4287     9.7249 H            1 FFO505   0.0000
    55 H21         26.6283    26.6246     6.9406 H            1 FFO505   0.0000
@<TRIPOS>BOND
     1    1    2       2
     2    1   12       1
     3    2    3       1
     4    2    4       1
     5    4    5       1
     6    5    6       2
     7    5    7       1
     8    7    8       1
     9    7   12       2
    10    8    9       1
    11    8   33      am
    12    9   10       1
    13    9   13       1
    14   10   11       1
    15   11   12       1
    16   13   14       1
    17   14   18       1
    18   15   16      ar
    19   15   20      ar
    20   15   21       1
    21   16   17      ar
    22   17   18      ar
    23   18   19      ar
    24   19   20      ar
    25   21   22       2
    26   21   23      am
    27   23   24       1
    28   24   25       1
    29   24   30       1
    30   25   26       1
    31   26   27       1
    32   27   28      ar
    33   27   29      ar
    34   30   31      ar
    35   30   32      ar
    36   33   34       2
    37   33   54       1
    38    3   35       1
    39    3   36       1
    40    9   37       1
    41   10   38       1
    42   10   39       1
    43   11   40       1
    44   13   41       1
    45   13   42       1
    46   14   43       1
    47   16   44       1
    48   17   45       1
    49   19   46       1
    50   20   47       1
    51   23   48       1
    52   24   49       1
    53   25   50       1
    54   25   51       1
    55   26   52       1
    56   26   53       1
    57    4   55       1
@<TRIPOS>SUBSTRUCTURE
     1 FFO505      1 GROUP             4 A     FFO     0 **** FFO A 505
