@<TRIPOS>MOLECULE
4xsv_C5P_1_ligand
   33    34     1     0     0
SMALL
NO_CHARGES


@<TRIPOS>ATOM
     1 O3P        -18.9490    -3.6310   -12.9700 O.co2        1 C5P401   0.0000
     2 P          -20.2280    -2.8200   -12.8730 P.3          1 C5P401   0.0000
     3 O1P        -19.9590    -1.3810   -13.2790 O.co2        1 C5P401  -1.0000
     4 O2P        -20.9990    -2.9770   -11.6070 O.co2        1 C5P401  -1.0000
     5 O5'        -21.2350    -3.3730   -13.9690 O.3          1 C5P401   0.0000
     6 C5'        -21.4880    -4.7850   -14.0960 C.3          1 C5P401   0.0000
     7 C4'        -22.1670    -5.1010   -15.4300 C.3          1 C5P401   0.0000
     8 O4'        -23.4920    -4.5150   -15.4660 O.3          1 C5P401   0.0000
     9 C3'        -21.3700    -4.5030   -16.5730 C.3          1 C5P401   0.0000
    10 O3'        -21.4450    -5.3300   -17.7170 O.3          1 C5P401   0.0000
    11 C2'        -22.1100    -3.2200   -16.8520 C.3          1 C5P401   0.0000
    12 O2'        -21.8830    -2.7270   -18.1650 O.3          1 C5P401   0.0000
    13 C1'        -23.5730    -3.6240   -16.5880 C.3          1 C5P401   0.0000
    14 N1         -24.3930    -2.4460   -16.3220 N.pl3        1 C5P401   0.0000
    15 C2         -25.3750    -1.9490   -17.2570 C.2          1 C5P401   0.0000
    16 N3         -26.0930    -0.8440   -16.9580 N.2          1 C5P401   0.0000
    17 C4         -25.8700    -0.2080   -15.7920 C.2          1 C5P401   0.0000
    18 C5         -24.9130    -0.6690   -14.9000 C.2          1 C5P401   0.0000
    19 C6         -24.1670    -1.8050   -15.1800 C.2          1 C5P401   0.0000
    20 O2         -25.6500    -2.5080   -18.3590 O.2          1 C5P401   0.0000
    21 N4         -26.5920     0.8990   -15.4770 N.pl3        1 C5P401   0.0000
    22 H5'1       -22.0830    -5.0794   -13.3481 H            1 C5P401   0.0000
    23 H5'2       -20.6199    -5.2789   -14.0456 H            1 C5P401   0.0000
    24 H4'        -22.2335    -6.0918   -15.5478 H            1 C5P401   0.0000
    25 H3'        -20.4217    -4.3292   -16.3075 H            1 C5P401   0.0000
    26 H5         -20.5257    -5.6288   -17.9732 H            1 C5P401   0.0000
    27 H2'        -21.8331    -2.5271   -16.1862 H            1 C5P401   0.0000
    28 H7         -21.0907    -2.1169   -18.1596 H            1 C5P401   0.0000
    29 H1'        -23.9351    -4.1138   -17.3811 H            1 C5P401   0.0000
    30 H9         -24.7586    -0.1761   -14.0437 H            1 C5P401   0.0000
    31 H10        -23.4752    -2.1338   -14.5372 H            1 C5P401   0.0000
    32 H11        -26.4285     1.3732   -14.6119 H            1 C5P401   0.0000
    33 H12        -27.2870     1.2396   -16.1103 H            1 C5P401   0.0000
@<TRIPOS>BOND
     1    1    2      ar
     2    2    3      ar
     3    2    4      ar
     4    2    5       1
     5    5    6       1
     6    6    7       1
     7    7    8       1
     8    7    9       1
     9    8   13       1
    10    9   10       1
    11    9   11       1
    12   11   12       1
    13   11   13       1
    14   13   14       1
    15   14   15       1
    16   14   19       1
    17   15   16       1
    18   15   20       2
    19   16   17       2
    20   17   18       1
    21   17   21       1
    22   18   19       2
    23   21   33       1
    24   21   32       1
    25    6   22       1
    26    6   23       1
    27    7   24       1
    28    9   25       1
    29   10   26       1
    30   11   27       1
    31   12   28       1
    32   13   29       1
    33   18   30       1
    34   19   31       1
@<TRIPOS>SUBSTRUCTURE
     1 C5P401      1 GROUP             4 A     C5P     0 **** C5P A 401
