@<TRIPOS>MOLECULE
1iiu_RTL_1_ligand
   53    53     1     0     0
SMALL
NO_CHARGES


@<TRIPOS>ATOM
     1 C1           0.6330     4.8620    -7.8030 C.3          1 RTL176   0.0000
     2 C2           0.8280     6.3200    -8.2840 C.3          1 RTL176   0.0000
     3 C3           0.0700     7.4600    -7.6000 C.2          1 RTL176   0.0000
     4 C4          -0.8680     7.1450    -6.4110 C.2          1 RTL176   0.0000
     5 C5          -1.0560     5.6970    -5.8750 C.3          1 RTL176   0.0000
     6 C6          -0.2760     4.6100    -6.5760 C.3          1 RTL176   0.0000
     7 C7          -0.3930     3.1540    -6.1500 C.2          1 RTL176   0.0000
     8 C8          -1.4410     2.4280    -5.6370 C.2          1 RTL176   0.0000
     9 C9          -1.3730     1.0560    -5.3620 C.3          1 RTL176   0.0000
    10 C10         -2.6770     0.6430    -4.8720 C.2          1 RTL176   0.0000
    11 C11         -3.0480    -0.6040    -4.5260 C.2          1 RTL176   0.0000
    12 C12         -4.3200    -0.8550    -4.1030 C.2          1 RTL176   0.0000
    13 C13         -4.7930    -2.1540    -3.6640 C.2          1 RTL176   0.0000
    14 C14         -5.9650    -2.1980    -2.8150 C.3          1 RTL176   0.0000
    15 C15         -6.5920    -3.4910    -2.3100 C.3          1 RTL176   0.0000
    16 O1          -7.7300    -3.3660    -1.4860 O.3          1 RTL176   0.0000
    17 C16          2.0500     4.1710    -7.6870 C.3          1 RTL176   0.0000
    18 C17         -0.0170     4.2090    -9.0500 C.3          1 RTL176   0.0000
    19 C18         -0.7360     5.8820    -4.3780 C.3          1 RTL176   0.0000
    20 C19         -0.1200     0.5280    -4.5780 C.3          1 RTL176   0.0000
    21 C20         -4.0770    -3.4840    -4.0710 C.3          1 RTL176   0.0000
    22 H1           0.5714     6.3418    -9.2503 H            1 RTL176   0.0000
    23 H2           1.8023     6.5260    -8.1931 H            1 RTL176   0.0000
    24 H3           0.1802     8.4012    -7.9192 H            1 RTL176   0.0000
    25 H4          -1.3676     7.8934    -5.9747 H            1 RTL176   0.0000
    26 H5          -2.0269     5.4698    -5.9511 H            1 RTL176   0.0000
    27 H6           0.4974     4.7447    -5.9565 H            1 RTL176   0.0000
    28 H7           0.4494     2.6274    -6.2646 H            1 RTL176   0.0000
    29 H8          -2.2995     2.9054    -5.4497 H            1 RTL176   0.0000
    30 H9          -1.3001     0.6269    -6.2623 H            1 RTL176   0.0000
    31 H10         -3.3700     1.3584    -4.7826 H            1 RTL176   0.0000
    32 H11         -2.3861    -1.3517    -4.5795 H            1 RTL176   0.0000
    33 H12         -4.9687    -0.0940    -4.0950 H            1 RTL176   0.0000
    34 H13         -6.6861    -1.7244    -3.3207 H            1 RTL176   0.0000
    35 H14         -5.7299    -1.6715    -1.9980 H            1 RTL176   0.0000
    36 H15         -5.8940    -3.9826    -1.7894 H            1 RTL176   0.0000
    37 H16         -6.8548    -4.0321    -3.1089 H            1 RTL176   0.0000
    38 H17         -8.0498    -4.2751    -1.2191 H            1 RTL176   0.0000
    39 H18          1.9362     3.2272    -7.3766 H            1 RTL176   0.0000
    40 H19          2.4975     4.1761    -8.5812 H            1 RTL176   0.0000
    41 H20          2.6126     4.6725    -7.0298 H            1 RTL176   0.0000
    42 H21         -0.1975     3.2431    -8.8646 H            1 RTL176   0.0000
    43 H22         -0.8768     4.6744    -9.2600 H            1 RTL176   0.0000
    44 H23          0.6041     4.2884    -9.8297 H            1 RTL176   0.0000
    45 H24         -0.8226     5.0038    -3.9076 H            1 RTL176   0.0000
    46 H25          0.1983     6.2238    -4.2766 H            1 RTL176   0.0000
    47 H26         -1.3762     6.5384    -3.9789 H            1 RTL176   0.0000
    48 H27         -0.1989    -0.4607    -4.4505 H            1 RTL176   0.0000
    49 H28          0.7091     0.7319    -5.0985 H            1 RTL176   0.0000
    50 H29         -0.0720     0.9764    -3.6855 H            1 RTL176   0.0000
    51 H30         -4.5600    -4.2601    -3.6657 H            1 RTL176   0.0000
    52 H31         -4.0799    -3.5728    -5.0670 H            1 RTL176   0.0000
    53 H32         -3.1333    -3.4692    -3.7404 H            1 RTL176   0.0000
@<TRIPOS>BOND
     1    1    2       1
     2    1    6       1
     3    1   17       1
     4    1   18       1
     5    2    3       1
     6    3    4       2
     7    4    5       1
     8    5    6       1
     9    5   19       1
    10    6    7       1
    11    7    8       2
    12    8    9       1
    13    9   10       1
    14    9   20       1
    15   10   11       2
    16   11   12       1
    17   12   13       2
    18   13   14       1
    19   13   21       1
    20   14   15       1
    21   15   16       1
    22    2   22       1
    23    2   23       1
    24    3   24       1
    25    4   25       1
    26    5   26       1
    27    6   27       1
    28    7   28       1
    29    8   29       1
    30    9   30       1
    31   10   31       1
    32   11   32       1
    33   12   33       1
    34   14   34       1
    35   14   35       1
    36   15   36       1
    37   15   37       1
    38   16   38       1
    39   17   39       1
    40   17   40       1
    41   17   41       1
    42   18   42       1
    43   18   43       1
    44   18   44       1
    45   19   45       1
    46   19   46       1
    47   19   47       1
    48   20   48       1
    49   20   49       1
    50   20   50       1
    51   21   51       1
    52   21   52       1
    53   21   53       1
@<TRIPOS>SUBSTRUCTURE
     1 RTL176      1 GROUP             4 A     RTL     0 **** RTL A 176
