@<TRIPOS>MOLECULE
2bsx_NOS_1_ligand
   31    33     1     0     0
SMALL
NO_CHARGES


@<TRIPOS>ATOM
     1 N9          24.7310     7.5340   -10.2100 N.pl3        1 NOS1248   0.0000
     2 C4          23.5730     6.9500   -10.5300 C.2          1 NOS1248   0.0000
     3 N3          22.5930     6.2750    -9.8910 N.2          1 NOS1248   0.0000
     4 C2          21.5140     5.7900   -10.5440 C.2          1 NOS1248   0.0000
     5 N1          21.3250     5.9400   -11.8680 N.pl3        1 NOS1248   0.0000
     6 C6          22.2260     6.6010   -12.6350 C.2          1 NOS1248   0.0000
     7 O6          22.0820     6.7830   -13.9730 O.2          1 NOS1248   0.0000
     8 C5          23.4240     7.1430   -11.9900 C.2          1 NOS1248   0.0000
     9 N7          24.4910     7.8050   -12.4200 N.2          1 NOS1248   0.0000
    10 C8          25.2710     8.0410   -11.3350 C.2          1 NOS1248   0.0000
    11 C5'         26.5600     4.5570    -9.4130 C.3          1 NOS1248   0.0000
    12 O5'         27.8590     4.0320    -9.6990 O.3          1 NOS1248   0.0000
    13 C4'         26.6900     5.7090    -8.4350 C.3          1 NOS1248   0.0000
    14 O4'         26.6570     6.9760    -9.0710 O.3          1 NOS1248   0.0000
    15 C1'         25.4100     7.6500    -8.9000 C.3          1 NOS1248   0.0000
    16 C2'         24.6870     6.9250    -7.7900 C.3          1 NOS1248   0.0000
    17 O2'         24.6600     7.7500    -6.6310 O.3          1 NOS1248   0.0000
    18 C3'         25.5290     5.7090    -7.4750 C.3          1 NOS1248   0.0000
    19 O3'         26.0490     5.7940    -6.1360 O.3          1 NOS1248   0.0000
    20 H1          20.8222     5.2955   -10.0178 H            1 NOS1248   0.0000
    21 H2          26.1416     8.5320   -11.3668 H            1 NOS1248   0.0000
    22 H5'1        25.9908     3.8398    -9.0109 H            1 NOS1248   0.0000
    23 H5'2        26.1376     4.8828   -10.2588 H            1 NOS1248   0.0000
    24 H5'         27.7861     3.0564    -9.9060 H            1 NOS1248   0.0000
    25 H4'         27.5442     5.6160    -7.9235 H            1 NOS1248   0.0000
    26 H1'         25.5559     8.6098    -8.6602 H            1 NOS1248   0.0000
    27 H2'         23.7633     6.6633    -8.0699 H            1 NOS1248   0.0000
    28 H9          24.6531     7.1752    -5.8128 H            1 NOS1248   0.0000
    29 H3'         24.9883     4.8750    -7.5847 H            1 NOS1248   0.0000
    30 H11         25.4275     5.3272    -5.5068 H            1 NOS1248   0.0000
    31 H12         20.5051     5.5569   -12.2935 H            1 NOS1248   0.0000
@<TRIPOS>BOND
     1    1    2       1
     2    1   10       1
     3    1   15       1
     4    2    3       1
     5    2    8       2
     6    3    4       2
     7    4    5       1
     8    5    6       1
     9    6    7       2
    10    6    8       1
    11    8    9       1
    12    9   10       2
    13   11   12       1
    14   11   13       1
    15   13   14       1
    16   13   18       1
    17   14   15       1
    18   15   16       1
    19   16   17       1
    20   16   18       1
    21   18   19       1
    22   19   30       1
    23    4   20       1
    24   10   21       1
    25   11   22       1
    26   11   23       1
    27   12   24       1
    28   13   25       1
    29   15   26       1
    30   16   27       1
    31   17   28       1
    32   18   29       1
    33    5   31       1
@<TRIPOS>SUBSTRUCTURE
     1 NOS1248     1 GROUP             4 A     NOS     0 **** NOS A1248
