@<TRIPOS>MOLECULE
4ez8_DHF_1_ligand
   49    51     1     0     0
SMALL
NO_CHARGES


@<TRIPOS>ATOM
     1 N1          21.1260   -15.4560    12.3020 N.2          1 DHF402   0.0000
     2 C2          22.4260   -15.2510    12.5080 C.2          1 DHF402   0.0000
     3 NA2         22.8280   -14.9470    13.7220 N.pl3        1 DHF402   0.0000
     4 N3          23.3490   -15.3100    11.5130 N.pl3        1 DHF402   0.0000
     5 C4          23.0220   -15.5680    10.2040 C.2          1 DHF402   0.0000
     6 O4          23.8940   -15.5570     9.3150 O.2          1 DHF402   0.0000
     7 C4A         21.6270   -15.8780     9.9700 C.ar         1 DHF402   0.0000
     8 N5          21.2100   -16.2550     8.7100 N.ar         1 DHF402   0.0000
     9 C6          19.9290   -16.7020     8.5740 C.ar         1 DHF402   0.0000
    10 C7          19.0070   -16.5990     9.6390 C.ar         1 DHF402   0.0000
    11 N8          19.4140   -16.0730    10.8460 N.ar         1 DHF402   0.0000
    12 C8A         20.7480   -15.7940    11.0400 C.ar         1 DHF402   0.0000
    13 C9          19.5270   -17.2330     7.2420 C.3          1 DHF402   0.0000
    14 N10         20.6490   -17.7740     6.4850 N.pl3        1 DHF402   0.0000
    15 C11         22.8150   -21.0220     7.7960 C.ar         1 DHF402   0.0000
    16 C12         23.0740   -20.4730     6.5310 C.ar         1 DHF402   0.0000
    17 C13         22.3360   -19.3420     6.1050 C.ar         1 DHF402   0.0000
    18 C14         21.3560   -18.8410     6.8970 C.ar         1 DHF402   0.0000
    19 C15         21.1520   -19.4620     8.1600 C.ar         1 DHF402   0.0000
    20 C16         21.8210   -20.5530     8.5780 C.ar         1 DHF402   0.0000
    21 C           23.5880   -22.1900     8.2560 C.2          1 DHF402   0.0000
    22 O           23.2830   -22.8150     9.3310 O.2          1 DHF402   0.0000
    23 N           24.5690   -22.6430     7.5170 N.am         1 DHF402   0.0000
    24 CA          25.5940   -23.5050     8.0370 C.3          1 DHF402   0.0000
    25 CB          25.2930   -24.8360     7.3730 C.3          1 DHF402   0.0000
    26 CG          23.9340   -25.5150     7.7980 C.3          1 DHF402   0.0000
    27 CD          23.8960   -26.9600     7.2340 C.2          1 DHF402   0.0000
    28 OE1         22.7550   -27.5900     7.2530 O.co2        1 DHF402   0.0000
    29 OE2         25.0600   -27.3740     6.7450 O.co2        1 DHF402  -1.0000
    30 CT          26.9490   -22.9260     7.7470 C.2          1 DHF402   0.0000
    31 O1          27.9060   -23.3510     8.4860 O.co2        1 DHF402   0.0000
    32 O2          27.0950   -22.0480     6.7770 O.co2        1 DHF402  -1.0000
    33 HA21        23.7988   -14.7884    13.9022 H            1 DHF402   0.0000
    34 HA22        22.1631   -14.8743    14.4654 H            1 DHF402   0.0000
    35 H3          18.0632   -16.9064     9.5177 H            1 DHF402   0.0000
    36 H4          19.1141   -16.4909     6.7140 H            1 DHF402   0.0000
    37 H5          18.8538   -17.9599     7.3782 H            1 DHF402   0.0000
    38 H6          20.9034   -17.3336     5.6240 H            1 DHF402   0.0000
    39 H7          23.7711   -20.8754     5.9376 H            1 DHF402   0.0000
    40 H8          22.5368   -18.9145     5.2236 H            1 DHF402   0.0000
    41 H9          20.4707   -19.0644     8.7746 H            1 DHF402   0.0000
    42 H10         21.5884   -21.0015     9.4410 H            1 DHF402   0.0000
    43 H11         24.6064   -22.3788     6.5532 H            1 DHF402   0.0000
    44 HA          25.4786   -23.5959     9.0261 H            1 DHF402   0.0000
    45 HB1         26.0359   -25.4669     7.5968 H            1 DHF402   0.0000
    46 HB2         25.2676   -24.6883     6.3843 H            1 DHF402   0.0000
    47 HG1         23.1668   -24.9904     7.4289 H            1 DHF402   0.0000
    48 HG2         23.8700   -25.5423     8.7956 H            1 DHF402   0.0000
    49 H17         24.3101   -15.1587    11.7440 H            1 DHF402   0.0000
@<TRIPOS>BOND
     1    1    2       2
     2    1   12       1
     3    2    3       1
     4    2    4       1
     5    4    5       1
     6    5    6       2
     7    5    7       1
     8    7    8      ar
     9    7   12      ar
    10    8    9      ar
    11    9   10      ar
    12    9   13       1
    13   10   11      ar
    14   11   12      ar
    15   13   14       1
    16   14   18       1
    17   15   16      ar
    18   15   20      ar
    19   15   21       1
    20   16   17      ar
    21   17   18      ar
    22   18   19      ar
    23   19   20      ar
    24   21   22       2
    25   21   23      am
    26   23   24       1
    27   24   25       1
    28   24   30       1
    29   25   26       1
    30   26   27       1
    31   27   28      ar
    32   27   29      ar
    33   30   31      ar
    34   30   32      ar
    35    4   49       1
    36    3   33       1
    37    3   34       1
    38   10   35       1
    39   13   36       1
    40   13   37       1
    41   14   38       1
    42   16   39       1
    43   17   40       1
    44   19   41       1
    45   20   42       1
    46   23   43       1
    47   24   44       1
    48   25   45       1
    49   25   46       1
    50   26   47       1
    51   26   48       1
@<TRIPOS>SUBSTRUCTURE
     1 DHF402      1 GROUP             4 A     DHF     0 **** DHF A 402
