@<TRIPOS>MOLECULE
3ncr_ADP_1_ligand
   39    41     1     0     0
SMALL
NO_CHARGES


@<TRIPOS>ATOM
     1 PB          15.8530    14.6000    24.2590 P.3          1 ADP120   0.0000
     2 O1B         15.8170    13.3490    24.9740 O.co2        1 ADP120   0.0000
     3 O2B         16.6310    14.5550    23.0280 O.co2        1 ADP120  -1.0000
     4 O3B         14.5210    15.1260    24.0790 O.co2        1 ADP120  -1.0000
     5 PA          16.1880    16.2930    26.6120 P.3          1 ADP120   0.0000
     6 O1A         15.7380    15.1140    27.3440 O.co2        1 ADP120   0.0000
     7 O2A         15.3530    17.4610    26.5900 O.co2        1 ADP120  -1.0000
     8 O3A         16.5540    15.7750    25.1720 O.3          1 ADP120   0.0000
     9 O5'         17.6030    16.6710    27.2060 O.3          1 ADP120   0.0000
    10 C5'         18.0460    17.9730    27.4090 C.3          1 ADP120   0.0000
    11 C4'         19.3010    18.0220    28.2650 C.3          1 ADP120   0.0000
    12 O4'         19.0260    17.5170    29.5560 O.3          1 ADP120   0.0000
    13 C3'         20.4440    17.1630    27.7550 C.3          1 ADP120   0.0000
    14 O3'         21.2000    17.7200    26.6830 O.3          1 ADP120   0.0000
    15 C2'         21.2320    16.8730    29.0000 C.3          1 ADP120   0.0000
    16 O2'         22.0410    17.9660    29.3990 O.3          1 ADP120   0.0000
    17 C1'         20.1340    16.7740    30.0380 C.3          1 ADP120   0.0000
    18 N9          19.6950    15.3990    30.3300 N.pl3        1 ADP120   0.0000
    19 C8          18.7140    14.7840    29.7140 C.2          1 ADP120   0.0000
    20 N7          18.5050    13.5590    30.2010 N.2          1 ADP120   0.0000
    21 C5          19.4000    13.3540    31.1680 C.ar         1 ADP120   0.0000
    22 C6          19.7540    12.2760    32.0930 C.ar         1 ADP120   0.0000
    23 N6          19.1090    11.1150    32.1260 N.pl3        1 ADP120   0.0000
    24 N1          20.7260    12.5200    32.9340 N.ar         1 ADP120   0.0000
    25 C2          21.4030    13.6530    32.9570 C.ar         1 ADP120   0.0000
    26 N3          21.1510    14.6560    32.1690 N.ar         1 ADP120   0.0000
    27 C4          20.1830    14.5750    31.2490 C.ar         1 ADP120   0.0000
    28 H5'1        17.3235    18.4921    27.8657 H            1 ADP120   0.0000
    29 H5'2        18.2446    18.3883    26.5213 H            1 ADP120   0.0000
    30 H4'         19.6104    18.9699    28.3414 H            1 ADP120   0.0000
    31 H3'         20.0546    16.2994    27.4347 H            1 ADP120   0.0000
    32 H5          21.9247    17.0831    26.4200 H            1 ADP120   0.0000
    33 H2'         21.7561    16.0247    28.9246 H            1 ADP120   0.0000
    34 H7          22.5432    17.7235    30.2290 H            1 ADP120   0.0000
    35 H1'         20.4565    17.1940    30.8863 H            1 ADP120   0.0000
    36 H9          18.1845    15.1858    28.9669 H            1 ADP120   0.0000
    37 H10         19.3865    10.4072    32.7756 H            1 ADP120   0.0000
    38 H11         18.3461    10.9489    31.5012 H            1 ADP120   0.0000
    39 H12         22.1497    13.7448    33.6158 H            1 ADP120   0.0000
@<TRIPOS>BOND
     1    1    2      ar
     2    1    3      ar
     3    1    4      ar
     4    1    8       1
     5    5    6      ar
     6    5    7      ar
     7    5    8       1
     8    5    9       1
     9    9   10       1
    10   10   11       1
    11   11   12       1
    12   11   13       1
    13   12   17       1
    14   13   14       1
    15   13   15       1
    16   15   16       1
    17   15   17       1
    18   17   18       1
    19   18   19       1
    20   18   27       1
    21   19   20       2
    22   20   21       1
    23   21   22      ar
    24   21   27      ar
    25   22   23       1
    26   22   24      ar
    27   24   25      ar
    28   25   26      ar
    29   26   27      ar
    30   25   39       1
    31   23   38       1
    32   23   37       1
    33   10   28       1
    34   10   29       1
    35   11   30       1
    36   13   31       1
    37   14   32       1
    38   15   33       1
    39   16   34       1
    40   17   35       1
    41   19   36       1
@<TRIPOS>SUBSTRUCTURE
     1 ADP120      1 GROUP             4 A     ADP     0 **** ADP A 120
