@<TRIPOS>MOLECULE
3tnl_NAD_3_ligand
   70    74     1     0     0
SMALL
NO_CHARGES


@<TRIPOS>ATOM
     1 PA           4.0810    24.3510     9.1370 P.3          1 NAD292   0.0000
     2 O1A          5.3180    24.0580     9.9160 O.co2        1 NAD292   0.0000
     3 O2A          2.7860    23.6220     9.4240 O.co2        1 NAD292  -1.0000
     4 O5B          4.4050    24.2020     7.5610 O.3          1 NAD292   0.0000
     5 C5B          5.5860    24.7380     6.9980 C.3          1 NAD292   0.0000
     6 C4B          5.4700    24.7160     5.4830 C.3          1 NAD292   0.0000
     7 O4B          6.5710    25.4450     4.9790 O.3          1 NAD292   0.0000
     8 C3B          5.5860    23.3430     4.8290 C.3          1 NAD292   0.0000
     9 O3B          4.8970    23.3980     3.5850 O.3          1 NAD292   0.0000
    10 C2B          7.0410    23.1860     4.5540 C.3          1 NAD292   0.0000
    11 O2B          7.3170    22.2730     3.4800 O.3          1 NAD292   0.0000
    12 C1B          7.3930    24.6000     4.1700 C.3          1 NAD292   0.0000
    13 N9A          8.7990    24.9850     4.3860 N.pl3        1 NAD292   0.0000
    14 C8A          9.3680    25.3510     5.5620 C.2          1 NAD292   0.0000
    15 N7A         10.6660    25.6850     5.3960 N.2          1 NAD292   0.0000
    16 C5A         10.9340    25.5580     4.0660 C.ar         1 NAD292   0.0000
    17 C6A         12.0510    25.7440     3.2560 C.ar         1 NAD292   0.0000
    18 N6A         13.2310    26.1520     3.7770 N.pl3        1 NAD292   0.0000
    19 N1A         11.9180    25.5060     1.9410 N.ar         1 NAD292   0.0000
    20 C2A         10.7700    25.0870     1.3750 C.ar         1 NAD292   0.0000
    21 N3A          9.6570    24.9070     2.0960 N.ar         1 NAD292   0.0000
    22 C4A          9.7070    25.1090     3.4190 C.ar         1 NAD292   0.0000
    23 O3           3.8850    25.9560     9.2810 O.3          1 NAD292   0.0000
    24 PN           2.4780    26.7710     9.1430 P.3          1 NAD292   0.0000
    25 O1N          1.7830    26.7290    10.4890 O.co2        1 NAD292   0.0000
    26 O2N          1.7270    26.3750     7.9360 O.co2        1 NAD292  -1.0000
    27 O5D          3.0360    28.2650     8.9320 O.3          1 NAD292   0.0000
    28 C5D          3.6610    28.5660     7.6850 C.3          1 NAD292   0.0000
    29 C4D          3.7660    30.0890     7.6120 C.3          1 NAD292   0.0000
    30 O4D          2.4390    30.6560     7.6780 O.3          1 NAD292   0.0000
    31 C3D          4.5490    30.6820     8.7680 C.3          1 NAD292   0.0000
    32 O3D          5.4320    31.7070     8.2700 O.3          1 NAD292   0.0000
    33 C2D          3.4810    31.3080     9.6310 C.3          1 NAD292   0.0000
    34 O2D          3.9440    32.4240    10.4010 O.3          1 NAD292   0.0000
    35 C1D          2.4520    31.7350     8.5770 C.3          1 NAD292   0.0000
    36 N1N          1.0980    31.9440     9.0970 N.ar         1 NAD292   1.0000
    37 C2N          0.5620    33.1840     9.0250 C.ar         1 NAD292   0.0000
    38 C3N         -0.7170    33.4120     9.5070 C.ar         1 NAD292   0.0000
    39 C7N         -1.3460    34.7590     9.4240 C.2          1 NAD292   0.0000
    40 O7N         -2.3230    34.9940    10.1230 O.2          1 NAD292   0.0000
    41 N7N         -0.8920    35.6760     8.5750 N.am         1 NAD292   0.0000
    42 C4N         -1.4540    32.3540    10.0730 C.ar         1 NAD292   0.0000
    43 C5N         -0.8820    31.0700    10.1270 C.ar         1 NAD292   0.0000
    44 C6N          0.4080    30.9000     9.6300 C.ar         1 NAD292   0.0000
    45 H5B1         6.3715    24.1880     7.2816 H            1 NAD292   0.0000
    46 H5B2         5.7083    25.6799     7.3107 H            1 NAD292   0.0000
    47 H4B          4.6162    25.1542     5.2021 H            1 NAD292   0.0000
    48 H3B          5.2357    22.6159     5.4195 H            1 NAD292   0.0000
    49 H5           5.3240    22.7651     2.9392 H            1 NAD292   0.0000
    50 H2B          7.5294    22.9135     5.3830 H            1 NAD292   0.0000
    51 H7           7.8775    21.5179     3.8201 H            1 NAD292   0.0000
    52 H1B          7.1602    24.7437     3.2081 H            1 NAD292   0.0000
    53 H8A          8.8880    25.3709     6.4390 H            1 NAD292   0.0000
    54 H6A1        14.0232    26.2805     3.1804 H            1 NAD292   0.0000
    55 H6A2        13.3110    26.3251     4.7587 H            1 NAD292   0.0000
    56 H2A         10.7487    24.9059     0.3918 H            1 NAD292   0.0000
    57 H5D1         3.1064    28.2208     6.9279 H            1 NAD292   0.0000
    58 H5D2         4.5715    28.1542     7.6461 H            1 NAD292   0.0000
    59 H4D          4.1973    30.3516     6.7488 H            1 NAD292   0.0000
    60 H3D          5.0534    29.9769     9.2663 H            1 NAD292   0.0000
    61 H17          5.2071    32.5799     8.7030 H            1 NAD292   0.0000
    62 H2D          3.0834    30.6179    10.2358 H            1 NAD292   0.0000
    63 H19          4.6813    32.1273    11.0080 H            1 NAD292   0.0000
    64 H1D          2.7674    32.5613     8.1104 H            1 NAD292   0.0000
    65 H2N          1.0877    33.9346     8.6247 H            1 NAD292   0.0000
    66 H7N1        -1.3260    36.5759     8.5319 H            1 NAD292   0.0000
    67 H7N2        -0.1166    35.4658     7.9796 H            1 NAD292   0.0000
    68 H4N         -2.3734    32.5136    10.4324 H            1 NAD292   0.0000
    69 H5N         -1.3887    30.2988    10.5124 H            1 NAD292   0.0000
    70 H6N          0.8337    29.9959     9.6656 H            1 NAD292   0.0000
@<TRIPOS>BOND
     1    1    2      ar
     2    1    3      ar
     3    1    4       1
     4    1   23       1
     5    4    5       1
     6    5    6       1
     7    6    7       1
     8    6    8       1
     9    7   12       1
    10    8    9       1
    11    8   10       1
    12   10   11       1
    13   10   12       1
    14   12   13       1
    15   13   14       1
    16   13   22       1
    17   14   15       2
    18   15   16       1
    19   16   17      ar
    20   16   22      ar
    21   17   18       1
    22   17   19      ar
    23   19   20      ar
    24   20   21      ar
    25   21   22      ar
    26   23   24       1
    27   24   25      ar
    28   24   26      ar
    29   24   27       1
    30   27   28       1
    31   28   29       1
    32   29   30       1
    33   29   31       1
    34   30   35       1
    35   31   32       1
    36   31   33       1
    37   33   34       1
    38   33   35       1
    39   35   36       1
    40   36   37      ar
    41   36   44      ar
    42   37   38      ar
    43   38   39       1
    44   38   42      ar
    45   39   40       2
    46   39   41      am
    47   42   43      ar
    48   43   44      ar
    49   44   70       1
    50    5   45       1
    51    5   46       1
    52    6   47       1
    53    8   48       1
    54    9   49       1
    55   10   50       1
    56   11   51       1
    57   12   52       1
    58   14   53       1
    59   18   54       1
    60   18   55       1
    61   20   56       1
    62   43   69       1
    63   28   57       1
    64   28   58       1
    65   29   59       1
    66   31   60       1
    67   32   61       1
    68   33   62       1
    69   34   63       1
    70   35   64       1
    71   37   65       1
    72   41   66       1
    73   41   67       1
    74   42   68       1
@<TRIPOS>SUBSTRUCTURE
     1 NAD292      1 GROUP             4 C     NAD     0 **** NAD C 292
