@<TRIPOS>MOLECULE
3o9c_K20_1_ligand
   79    83     1     0     0
SMALL
NO_CHARGES


@<TRIPOS>ATOM
     1 C1          15.6860    36.7420    18.4310 C.3          1 K20200   0.0000
     2 O1          15.0120    35.4700    18.5970 O.3          1 K20200   0.0000
     3 C2          15.6050    34.5810    17.7220 C.ar         1 K20200   0.0000
     4 O2          16.6340    36.5460    17.3740 O.3          1 K20200   0.0000
     5 C3          16.5950    35.2180    17.0020 C.ar         1 K20200   0.0000
     6 C4          17.3370    34.5430    16.0350 C.ar         1 K20200   0.0000
     7 C5          17.1220    33.1740    15.8070 C.ar         1 K20200   0.0000
     8 C6          16.1140    32.5460    16.5500 C.ar         1 K20200   0.0000
     9 C7          15.3500    33.2310    17.5120 C.ar         1 K20200   0.0000
    10 S8          18.0290    32.3410    14.7480 S.o2         1 K20200   0.0000
    11 O9          17.3140    31.2170    14.2430 O.2          1 K20200   0.0000
    12 O10         18.5200    33.2070    13.6830 O.2          1 K20200   0.0000
    13 N11         19.3370    31.7340    15.4920 N.3          1 K20200   0.0000
    14 C12         20.1080    32.7450    16.2580 C.3          1 K20200   0.0000
    15 C13         21.6060    32.4410    16.3620 C.3          1 K20200   0.0000
    16 C14         22.3340    32.4190    15.0120 C.3          1 K20200   0.0000
    17 C15         22.2570    33.4460    17.3190 C.3          1 K20200   0.0000
    18 C16         19.0540    30.5120    16.2740 C.3          1 K20200   0.0000
    19 C17         19.9560    29.3810    15.7650 C.3          1 K20200   0.0000
    20 C18         22.0590    34.8880    16.9170 C.3          1 K20200   0.0000
    21 O18         19.9420    28.2620    16.6590 O.3          1 K20200   0.0000
    22 C19         19.5790    28.9150    14.3640 C.3          1 K20200   0.0000
    23 N20         20.6490    28.0800    13.8710 N.am         1 K20200   0.0000
    24 C21         21.4910    28.4340    12.9130 C.2          1 K20200   0.0000
    25 O22         21.5540    29.4800    12.2750 O.2          1 K20200   0.0000
    26 O23         22.4540    27.4050    12.6720 O.3          1 K20200   0.0000
    27 C24         23.2520    27.5490    11.5030 C.3          1 K20200   0.0000
    28 C25         24.5770    26.9610    11.9210 C.3          1 K20200   0.0000
    29 O26         24.3060    25.5610    11.8970 O.3          1 K20200   0.0000
    30 C27         23.4600    25.2900    10.7860 C.3          1 K20200   0.0000
    31 O28         22.4810    24.3360    11.1700 O.3          1 K20200   0.0000
    32 C29         21.2020    24.9680    11.2500 C.3          1 K20200   0.0000
    33 C30         21.3050    26.2320    10.3990 C.3          1 K20200   0.0000
    34 C31         22.7810    26.5960    10.4180 C.3          1 K20200   0.0000
    35 C32         18.2720    28.1290    14.2720 C.3          1 K20200   0.0000
    36 C33         18.1060    26.3830    12.4390 C.ar         1 K20200   0.0000
    37 C34         17.8720    26.0170    11.1200 C.ar         1 K20200   0.0000
    38 C35         17.5120    26.9650    10.1800 C.ar         1 K20200   0.0000
    39 C36         17.4180    28.2930    10.5560 C.ar         1 K20200   0.0000
    40 C37         17.6510    28.6580    11.8820 C.ar         1 K20200   0.0000
    41 C38         18.0000    27.7140    12.8360 C.ar         1 K20200   0.0000
    42 H1          16.1546    37.0007    19.2757 H            1 K20200   0.0000
    43 H2          15.0295    37.4542    18.1825 H            1 K20200   0.0000
    44 H3          18.0250    35.0350    15.5015 H            1 K20200   0.0000
    45 H4          15.9311    31.5759    16.3907 H            1 K20200   0.0000
    46 H5          14.6397    32.7576    18.0329 H            1 K20200   0.0000
    47 H6          19.7319    32.7919    17.1834 H            1 K20200   0.0000
    48 H7          19.9978    33.6312    15.8081 H            1 K20200   0.0000
    49 H8          21.7009    31.5328    16.7696 H            1 K20200   0.0000
    50 H9          23.3020    32.2154    15.1586 H            1 K20200   0.0000
    51 H10         21.9303    31.7156    14.4270 H            1 K20200   0.0000
    52 H11         22.2443    33.3117    14.5703 H            1 K20200   0.0000
    53 H12         23.2390    33.2598    17.3512 H            1 K20200   0.0000
    54 H13         21.8630    33.3155    18.2288 H            1 K20200   0.0000
    55 H14         18.0946    30.2543    16.1597 H            1 K20200   0.0000
    56 H15         19.2406    30.6813    17.2417 H            1 K20200   0.0000
    57 H16         20.8922    29.7305    15.7285 H            1 K20200   0.0000
    58 H17         22.5077    35.4843    17.5827 H            1 K20200   0.0000
    59 H18         22.4571    35.0395    16.0123 H            1 K20200   0.0000
    60 H19         21.0811    35.0952    16.8898 H            1 K20200   0.0000
    61 H20         19.0561    28.2151    17.1205 H            1 K20200   0.0000
    62 H21         19.5069    29.7182    13.7726 H            1 K20200   0.0000
    63 H22         20.7613    27.1746    14.2804 H            1 K20200   0.0000
    64 H23         23.3235    28.4961    11.1902 H            1 K20200   0.0000
    65 H24         24.8353    27.2647    12.8381 H            1 K20200   0.0000
    66 H25         25.3007    27.2014    11.2741 H            1 K20200   0.0000
    67 H26         23.9967    24.9472    10.0150 H            1 K20200   0.0000
    68 H27         20.9893    25.2036    12.1983 H            1 K20200   0.0000
    69 H28         20.4920    24.3630    10.8895 H            1 K20200   0.0000
    70 H29         20.7558    26.9682    10.7944 H            1 K20200   0.0000
    71 H30         20.9987    26.0528     9.4641 H            1 K20200   0.0000
    72 H31         23.0803    26.9093     9.5168 H            1 K20200   0.0000
    73 H32         17.5198    28.7023    14.5969 H            1 K20200   0.0000
    74 H33         18.3389    27.3113    14.8437 H            1 K20200   0.0000
    75 H34         18.3530    25.6842    13.1104 H            1 K20200   0.0000
    76 H35         17.9647    25.0593    10.8476 H            1 K20200   0.0000
    77 H36         17.3213    26.6931     9.2368 H            1 K20200   0.0000
    78 H37         17.1834    28.9900     9.8784 H            1 K20200   0.0000
    79 H38         17.5648    29.6177    12.1495 H            1 K20200   0.0000
@<TRIPOS>BOND
     1    1    2       1
     2    1    4       1
     3    2    3       1
     4    3    5      ar
     5    3    9      ar
     6    4    5       1
     7    5    6      ar
     8    6    7      ar
     9    7    8      ar
    10    7   10       1
    11    8    9      ar
    12   10   11       2
    13   10   12       2
    14   10   13       1
    15   13   14       1
    16   13   18       1
    17   14   15       1
    18   15   16       1
    19   15   17       1
    20   17   20       1
    21   18   19       1
    22   19   21       1
    23   19   22       1
    24   22   23       1
    25   22   35       1
    26   23   24      am
    27   24   25       2
    28   24   26       1
    29   26   27       1
    30   27   28       1
    31   27   34       1
    32   28   29       1
    33   29   30       1
    34   30   31       1
    35   30   34       1
    36   31   32       1
    37   32   33       1
    38   33   34       1
    39   35   41       1
    40   36   37      ar
    41   36   41      ar
    42   37   38      ar
    43   38   39      ar
    44   39   40      ar
    45   40   41      ar
    46    1   42       1
    47    1   43       1
    48    6   44       1
    49    8   45       1
    50    9   46       1
    51   14   47       1
    52   14   48       1
    53   15   49       1
    54   16   50       1
    55   16   51       1
    56   16   52       1
    57   17   53       1
    58   17   54       1
    59   18   55       1
    60   18   56       1
    61   19   57       1
    62   20   58       1
    63   20   59       1
    64   20   60       1
    65   21   61       1
    66   22   62       1
    67   23   63       1
    68   27   64       1
    69   28   65       1
    70   28   66       1
    71   30   67       1
    72   32   68       1
    73   32   69       1
    74   33   70       1
    75   33   71       1
    76   34   72       1
    77   35   73       1
    78   35   74       1
    79   36   75       1
    80   37   76       1
    81   38   77       1
    82   39   78       1
    83   40   79       1
@<TRIPOS>SUBSTRUCTURE
     1 K20200      1 GROUP             4 A     K20     0 **** K20 A 200
