@<TRIPOS>MOLECULE
./coach420/1ndi/ligand.pdb
 48 50 0 0 0
SMALL
GASTEIGER

@<TRIPOS>ATOM
      1  N1A        6.9780   32.2830   74.9350 N.ar  5170  COA5170    -0.2040
      2  C2A        7.5860   33.2590   74.2520 C.ar  5170  COA5170     0.2016
      3  N3A        8.5510   33.9870   74.8210 N.ar  5170  COA5170    -0.2048
      4  C4A        8.9550   33.7380   76.0870 C.ar  5170  COA5170     0.1692
      5  C5A        8.3430   32.7370   76.8230 C.ar  5170  COA5170     0.1518
      6  C6A        7.3380   31.9890   76.2070 C.ar  5170  COA5170     0.1919
      7  N6A        6.7190   31.0180   76.8650 N.pl3 5170  COA5170    -0.1054
      8  N7A        8.9170   32.7050   78.0190 N.ar  5170  COA5170    -0.2193
      9  C8A        9.8460   33.6710   78.0500 C.ar  5170  COA5170     0.1816
     10  N9A        9.8640   34.3120   76.8670 N.ar  5170  COA5170    -0.2693
     11  C1B       10.7340   35.4760   76.4800 C.3   5170  COA5170     0.2408
     12  C2B       10.5810   36.7200   77.3600 C.3   5170  COA5170     0.2310
     13  O2B        9.4380   37.4790   76.9800 O.3   5170  COA5170    -0.2156
     14  C3B       11.8360   37.4940   77.0740 C.3   5170  COA5170     0.1904
     15  O3B       11.6750   38.2500   75.8630 O.3   5170  COA5170    -0.2674
     16  P3B       12.6230   39.5240   75.5180 P.3   5170  COA5170     0.5327
     17  O7A       13.2790   39.8950   76.9480 O.3   5170  COA5170    -0.1145
     18  O8A       11.7520   40.6470   75.1000 O.3   5170  COA5170    -0.1145
     19  O9A       13.7070   39.0660   74.6120 O.2   5170  COA5170    -0.2224
     20  C4B       12.9040   36.4180   76.9170 C.3   5170  COA5170     0.1775
     21  O4B       12.1730   35.2020   76.4630 O.3   5170  COA5170    -0.3307
     22  C5B       13.4510   36.1470   78.3230 C.3   5170  COA5170     0.1812
     23  O5B       14.2160   34.9590   78.3680 O.3   5170  COA5170    -0.3112
     24  P1A       13.7650   33.7670   79.3490 P.3   5170  COA5170     0.2189
     25  O1A       14.1270   32.5040   78.6820 O.2   5170  COA5170    -0.5170
     26  O2A       12.3470   33.9890   79.7240 O.3   5170  COA5170    -0.4371
     27  O3A       14.7170   33.9830   80.6540 O.3   5170  COA5170    -0.2703
     28  P2A       14.6140   35.3050   81.5930 P.3   5170  COA5170     0.2188
     29  O4A       13.2720   35.3670   82.2050 O.3   5170  COA5170    -0.4371
     30  O5A       15.0820   36.4520   80.7860 O.2   5170  COA5170    -0.5170
     31  O6A       15.7140   35.0160   82.7310 O.3   5170  COA5170    -0.3138
     32  CBP       16.7890   33.8560   84.5730 C.3   5170  COA5170     0.0645
     33  CCP       15.6430   33.8610   83.5590 C.3   5170  COA5170     0.1519
     34  CDP       18.0910   33.4930   83.8510 C.3   5170  COA5170     0.0056
     35  CEP       16.4910   32.8130   85.6550 C.3   5170  COA5170     0.0056
     36  CAP       16.9240   35.2590   85.1990 C.3   5170  COA5170     0.2312
     37  OAP       15.6430   35.6770   85.6870 O.3   5170  COA5170    -0.2131
     38  C9P       17.9570   35.2500   86.3490 C.2   5170  COA5170     0.2719
     39  O9P       17.6050   34.9940   87.5000 O.2   5170  COA5170    -0.2706
     40  N8P       19.2260   35.5010   85.9890 N.am  5170  COA5170    -0.2028
     41  C7P       20.3280   35.5140   86.9730 C.3   5170  COA5170     0.1248
     42  C6P       21.6580   35.8640   86.2910 C.3   5170  COA5170     0.1102
     43  C5P       22.8120   35.8820   87.3080 C.2   5170  COA5170     0.2432
     44  O5P       22.6790   36.4030   88.4210 O.2   5170  COA5170    -0.2733
     45  N4P       23.9320   35.2910   86.8920 N.am  5170  COA5170    -0.2044
     46  C3P       25.1420   35.2100   87.7340 C.3   5170  COA5170     0.1276
     47  C2P       26.3340   34.7830   86.8720 C.3   5170  COA5170     0.0920
     48  S1P       27.9230   34.7800   87.7880 S.3   5170  COA5170    -0.0802
@<TRIPOS>BOND
     1     1     2   ar
     2     1     6   ar
     3     2     3   ar
     4     3     4   ar
     5     4     5   ar
     6     4    10   ar
     7     5     6   ar
     8     5     8   ar
     9     6     7    1
    10     8     9   ar
    11     9    10   ar
    12    10    11    1
    13    11    21    1
    14    11    12    1
    15    12    13    1
    16    12    14    1
    17    14    15    1
    18    14    20    1
    19    15    16    1
    20    16    19    2
    21    16    18    1
    22    16    17    1
    23    20    21    1
    24    20    22    1
    25    22    23    1
    26    23    24    1
    27    24    25    2
    28    24    26    1
    29    24    27    1
    30    27    28    1
    31    28    30    2
    32    28    29    1
    33    28    31    1
    34    31    33    1
    35    32    33    1
    36    32    34    1
    37    32    36    1
    38    32    35    1
    39    36    37    1
    40    36    38    1
    41    38    40   am
    42    38    39    2
    43    40    41    1
    44    41    42    1
    45    42    43    1
    46    43    45   am
    47    43    44    2
    48    45    46    1
    49    46    47    1
    50    47    48    1
