@<TRIPOS>MOLECULE
2b4m_PBE_2_ligand
   23    23     1     0     0
SMALL
NO_CHARGES


@<TRIPOS>ATOM
     1 N           14.5620    10.0090    42.8330 N.4          1 PBE310   1.0000
     2 CD          14.5850     9.4820    44.2160 C.3          1 PBE310   0.0000
     3 CA          15.9820    10.2950    42.4850 C.3          1 PBE310   0.0000
     4 CB          16.7780     9.2270    43.2400 C.3          1 PBE310   0.0000
     5 CG          16.0530     9.2000    44.5800 C.3          1 PBE310   0.0000
     6 CE          13.8330     9.0620    41.9760 C.3          1 PBE310   0.0000
     7 CF          13.8390    11.2800    42.8090 C.3          1 PBE310   0.0000
     8 C           16.3060    10.2780    40.9680 C.2          1 PBE310   0.0000
     9 O           15.9330     9.3650    40.2400 O.co2        1 PBE310   0.0000
    10 OXT         16.9580    11.1810    40.4480 O.co2        1 PBE310  -1.0000
    11 HD1         14.0521     8.6374    44.2683 H            1 PBE310   0.0000
    12 HD2         14.2011    10.1578    44.8452 H            1 PBE310   0.0000
    13 HA          16.2253    11.1926    42.8525 H            1 PBE310   0.0000
    14 HB1         17.7358     9.4933    43.3480 H            1 PBE310   0.0000
    15 HB2         16.7283     8.3406    42.7797 H            1 PBE310   0.0000
    16 HG1         16.1453     8.3047    45.0159 H            1 PBE310   0.0000
    17 HG2         16.4096     9.9067    45.1912 H            1 PBE310   0.0000
    18 HE1         13.8117     9.4092    41.0384 H            1 PBE310   0.0000
    19 HE2         14.2938     8.1747    41.9925 H            1 PBE310   0.0000
    20 HE3         12.8977     8.9582    42.3143 H            1 PBE310   0.0000
    21 HF1         13.8230    11.6368    41.8750 H            1 PBE310   0.0000
    22 HF2         12.9019    11.1365    43.1271 H            1 PBE310   0.0000
    23 HF3         14.2978    11.9358    43.4085 H            1 PBE310   0.0000
@<TRIPOS>BOND
     1    1    2       1
     2    1    3       1
     3    1    6       1
     4    1    7       1
     5    2    5       1
     6    3    4       1
     7    3    8       1
     8    4    5       1
     9    8    9      ar
    10    8   10      ar
    11    2   11       1
    12    2   12       1
    13    3   13       1
    14    4   14       1
    15    4   15       1
    16    5   16       1
    17    5   17       1
    18    6   18       1
    19    6   19       1
    20    6   20       1
    21    7   21       1
    22    7   22       1
    23    7   23       1
@<TRIPOS>SUBSTRUCTURE
     1 PBE310      1 GROUP             4 B     PBE     0 **** PBE B 310
