@<TRIPOS>MOLECULE
4nwi_CTN_1_ligand
   30    31     1     0     0
SMALL
NO_CHARGES


@<TRIPOS>ATOM
     1 O5'        -16.5060   -11.6020    -9.9750 O.3          1 CTN402   0.0000
     2 C5'        -17.8150   -11.3790   -10.5000 C.3          1 CTN402   0.0000
     3 C4'        -17.6570   -10.5980   -11.7900 C.3          1 CTN402   0.0000
     4 O4'        -17.0960   -11.4150   -12.8130 O.3          1 CTN402   0.0000
     5 C1'        -17.5950   -11.0290   -14.0910 C.3          1 CTN402   0.0000
     6 N1         -18.0750   -12.2280   -14.7810 N.pl3        1 CTN402   0.0000
     7 C6         -19.3030   -12.7000   -14.5560 C.2          1 CTN402   0.0000
     8 C5         -19.7490   -13.8390   -15.2040 C.2          1 CTN402   0.0000
     9 C4         -18.8970   -14.4910   -16.0770 C.2          1 CTN402   0.0000
    10 N3         -17.6510   -14.0240   -16.2930 N.2          1 CTN402   0.0000
    11 C2         -17.2200   -12.9120   -15.6620 C.2          1 CTN402   0.0000
    12 O2         -16.0750   -12.4820   -15.8690 O.2          1 CTN402   0.0000
    13 N4         -19.3340   -15.5960   -16.6960 N.pl3        1 CTN402   0.0000
    14 C2'        -18.6990   -10.0070   -13.8410 C.3          1 CTN402   0.0000
    15 O2'        -18.2230    -8.7250   -14.2380 O.3          1 CTN402   0.0000
    16 C3'        -18.9650   -10.0740   -12.3470 C.3          1 CTN402   0.0000
    17 O3'        -19.2610    -8.7970   -11.7850 O.3          1 CTN402   0.0000
    18 H5'        -16.5729   -12.1168    -9.1203 H            1 CTN402   0.0000
    19 H5'1       -18.3607   -10.8540    -9.8469 H            1 CTN402   0.0000
    20 H5'2       -18.2640   -12.2537   -10.6824 H            1 CTN402   0.0000
    21 H4'        -17.0452    -9.8245   -11.6246 H            1 CTN402   0.0000
    22 H1'        -16.8616   -10.6067   -14.6237 H            1 CTN402   0.0000
    23 H6         -19.9060   -12.2268   -13.9138 H            1 CTN402   0.0000
    24 H7         -20.6733   -14.1852   -15.0434 H            1 CTN402   0.0000
    25 H8         -18.7349   -16.0833   -17.3313 H            1 CTN402   0.0000
    26 H9         -20.2593   -15.9334   -16.5227 H            1 CTN402   0.0000
    27 H2'        -19.5225   -10.2488   -14.3542 H            1 CTN402   0.0000
    28 H11        -18.9914    -8.1658   -14.5492 H            1 CTN402   0.0000
    29 H3'        -19.7061   -10.7174   -12.1553 H            1 CTN402   0.0000
    30 H13        -19.7851    -8.2565   -12.4432 H            1 CTN402   0.0000
@<TRIPOS>BOND
     1    1    2       1
     2    2    3       1
     3    3    4       1
     4    3   16       1
     5    4    5       1
     6    5    6       1
     7    5   14       1
     8    6    7       1
     9    6   11       1
    10    7    8       2
    11    8    9       1
    12    9   10       2
    13    9   13       1
    14   10   11       1
    15   11   12       2
    16   14   15       1
    17   14   16       1
    18   16   17       1
    19    1   18       1
    20    2   19       1
    21    2   20       1
    22    3   21       1
    23    5   22       1
    24    7   23       1
    25    8   24       1
    26   13   25       1
    27   13   26       1
    28   14   27       1
    29   15   28       1
    30   16   29       1
    31   17   30       1
@<TRIPOS>SUBSTRUCTURE
     1 CTN402      1 GROUP             4 A     CTN     0 **** CTN A 402
