@<TRIPOS>MOLECULE
1kqg_HQO_3_ligand
   40    41     1     0     0
SMALL
NO_CHARGES


@<TRIPOS>ATOM
     1 C1         -22.9340   112.0990    61.7490 C.ar         1 HQO811   0.0000
     2 O1         -23.2610   113.3580    60.9510 O.3          1 HQO811   0.0000
     3 C2         -21.9190   111.2030    61.2760 C.ar         1 HQO811   0.0000
     4 C3         -21.5830   110.0250    62.0250 C.ar         1 HQO811   0.0000
     5 N1         -22.2290   109.6790    63.2380 N.ar         1 HQO811   1.0000
     6 O4         -22.0250   108.4950    63.7960 O.3          1 HQO811  -1.0000
     7 C5         -23.2230   110.5550    63.7120 C.ar         1 HQO811   0.0000
     8 C6         -23.8990   110.2180    64.9310 C.ar         1 HQO811   0.0000
     9 C7         -24.9100   111.0790    65.4540 C.ar         1 HQO811   0.0000
    10 C8         -25.2530   112.2820    64.7510 C.ar         1 HQO811   0.0000
    11 C9         -24.5950   112.6260    63.5210 C.ar         1 HQO811   0.0000
    12 C10        -23.5790   111.7570    62.9900 C.ar         1 HQO811   0.0000
    13 C11        -20.5290   108.6810    61.9260 C.3          1 HQO811   0.0000
    14 C12        -18.4180   108.4610    60.7840 C.3          1 HQO811   0.0000
    15 C13        -19.8140   109.0980    60.6360 C.3          1 HQO811   0.0000
    16 C14        -17.3560   109.1310    59.9170 C.3          1 HQO811   0.0000
    17 C15        -16.4670   108.0520    59.2860 C.3          1 HQO811   0.0000
    18 C16        -15.2790   108.7040    58.5560 C.3          1 HQO811   0.0000
    19 C17        -14.8010   107.7530    57.4160 C.3          1 HQO811   0.0000
    20 H1         -22.7685   113.5546    60.1032 H            1 HQO811   0.0000
    21 H2         -21.4423   111.3999    60.4192 H            1 HQO811   0.0000
    22 H3         -23.6612   109.3767    65.4164 H            1 HQO811   0.0000
    23 H4         -25.3773   110.8449    66.3066 H            1 HQO811   0.0000
    24 H5         -25.9576   112.8874    65.1212 H            1 HQO811   0.0000
    25 H6         -24.8420   113.4652    63.0365 H            1 HQO811   0.0000
    26 H7         -21.0207   107.8157    61.8282 H            1 HQO811   0.0000
    27 H8         -19.9069   108.6245    62.7069 H            1 HQO811   0.0000
    28 H9         -18.4792   107.4974    60.5236 H            1 HQO811   0.0000
    29 H10        -18.1369   108.5304    61.7412 H            1 HQO811   0.0000
    30 H11        -19.7484   110.0935    60.5683 H            1 HQO811   0.0000
    31 H12        -20.2880   108.7398    59.8316 H            1 HQO811   0.0000
    32 H13        -16.7964   109.7373    60.4821 H            1 HQO811   0.0000
    33 H14        -17.7996   109.6629    59.1957 H            1 HQO811   0.0000
    34 H15        -17.0056   107.5208    58.6320 H            1 HQO811   0.0000
    35 H16        -16.1222   107.4466    60.0034 H            1 HQO811   0.0000
    36 H17        -14.5308   108.8559    59.2019 H            1 HQO811   0.0000
    37 H18        -15.5648   109.5790    58.1652 H            1 HQO811   0.0000
    38 H19        -14.0287   108.1695    56.9363 H            1 HQO811   0.0000
    39 H20        -14.5170   106.8783    57.8087 H            1 HQO811   0.0000
    40 H21        -15.5509   107.6014    56.7720 H            1 HQO811   0.0000
@<TRIPOS>BOND
     1    1    2       1
     2    1    3      ar
     3    1   12      ar
     4    3    4      ar
     5    4    5      ar
     6    4   13       1
     7    5    6       1
     8    5    7      ar
     9    7    8      ar
    10    7   12      ar
    11    8    9      ar
    12    9   10      ar
    13   10   11      ar
    14   11   12      ar
    15   13   15       1
    16   14   15       1
    17   14   16       1
    18   16   17       1
    19   17   18       1
    20   18   19       1
    21    2   20       1
    22    3   21       1
    23    8   22       1
    24    9   23       1
    25   10   24       1
    26   11   25       1
    27   13   26       1
    28   13   27       1
    29   14   28       1
    30   14   29       1
    31   15   30       1
    32   15   31       1
    33   16   32       1
    34   16   33       1
    35   17   34       1
    36   17   35       1
    37   18   36       1
    38   18   37       1
    39   19   38       1
    40   19   39       1
    41   19   40       1
@<TRIPOS>SUBSTRUCTURE
     1 HQO811      1 GROUP             4 C     HQO     0 **** HQO C 811
