@<TRIPOS>MOLECULE
3s3t_ATP_8_ligand
   43    45     1     0     0
SMALL
NO_CHARGES


@<TRIPOS>ATOM
     1 PG          -0.1770    -1.8740    50.0450 P.3          1 ATP501   0.0000
     2 O1G         -0.9450    -3.1570    50.2560 O.co2        1 ATP501   0.0000
     3 O2G         -0.3030    -1.4670    48.5880 O.co2        1 ATP501  -1.0000
     4 O3G          1.2080    -1.8330    50.6080 O.co2        1 ATP501  -1.0000
     5 PB          -0.6830     0.5130    51.6340 P.3          1 ATP501   0.0000
     6 O1B          0.7220     0.9510    51.4240 O.co2        1 ATP501   0.0000
     7 O2B         -1.7810     1.5360    51.3990 O.co2        1 ATP501  -1.0000
     8 O3B         -1.0870    -0.7260    50.7200 O.3          1 ATP501   0.0000
     9 PA           0.0030    -0.8310    54.1170 P.3          1 ATP501   0.0000
    10 O1A         -0.7060    -2.1020    54.5760 O.co2        1 ATP501   0.0000
    11 O2A          1.4130    -0.8590    53.6490 O.co2        1 ATP501  -1.0000
    12 O3A         -0.9240    -0.0070    53.1250 O.3          1 ATP501   0.0000
    13 O5'          0.0970     0.1680    55.3660 O.3          1 ATP501   0.0000
    14 C5'         -0.7770     0.0360    56.4740 C.3          1 ATP501   0.0000
    15 C4'         -0.0510     0.3180    57.7580 C.3          1 ATP501   0.0000
    16 O4'          1.0180    -0.6000    57.9140 O.3          1 ATP501   0.0000
    17 C3'          0.6190     1.6930    57.8280 C.3          1 ATP501   0.0000
    18 O3'         -0.2670     2.6980    58.2110 O.3          1 ATP501   0.0000
    19 C2'          1.6620     1.4490    58.8900 C.3          1 ATP501   0.0000
    20 O2'          1.0750     1.5450    60.2100 O.3          1 ATP501   0.0000
    21 C1'          2.1110     0.0490    58.5300 C.3          1 ATP501   0.0000
    22 N9           3.2830     0.0970    57.6150 N.pl3        1 ATP501   0.0000
    23 C8           3.2570     0.0220    56.2700 C.2          1 ATP501   0.0000
    24 N7           4.4980     0.0520    55.7250 N.2          1 ATP501   0.0000
    25 C5           5.3580     0.1590    56.7490 C.ar         1 ATP501   0.0000
    26 C6           6.8090     0.2890    56.8710 C.ar         1 ATP501   0.0000
    27 N6           7.6140     0.3070    55.7660 N.pl3        1 ATP501   0.0000
    28 N1           7.3070     0.3680    58.1190 N.ar         1 ATP501   0.0000
    29 C2           6.5220     0.3630    59.2220 C.ar         1 ATP501   0.0000
    30 N3           5.1920     0.2850    59.1790 N.ar         1 ATP501   0.0000
    31 C4           4.5550     0.1910    57.9930 C.ar         1 ATP501   0.0000
    32 H5'1        -1.1377    -0.8964    56.4986 H            1 ATP501   0.0000
    33 H5'2        -1.5328     0.6833    56.3751 H            1 ATP501   0.0000
    34 H4'         -0.6854     0.2200    58.5248 H            1 ATP501   0.0000
    35 H3'          1.0515     1.9188    56.9551 H            1 ATP501   0.0000
    36 H5          -1.0150     2.7528    57.5496 H            1 ATP501   0.0000
    37 H2'          2.4186     2.0959    58.7943 H            1 ATP501   0.0000
    38 H7           1.7645     1.8668    60.8588 H            1 ATP501   0.0000
    39 H1'          2.3615    -0.4432    59.3637 H            1 ATP501   0.0000
    40 H9           2.4160    -0.0480    55.7335 H            1 ATP501   0.0000
    41 H10          8.6045     0.3967    55.8704 H            1 ATP501   0.0000
    42 H11          7.2123     0.2305    54.8534 H            1 ATP501   0.0000
    43 H12          6.9638     0.4209    60.1173 H            1 ATP501   0.0000
@<TRIPOS>BOND
     1    1    2      ar
     2    1    3      ar
     3    1    4      ar
     4    1    8       1
     5    5    6      ar
     6    5    7      ar
     7    5    8       1
     8    5   12       1
     9    9   10      ar
    10    9   11      ar
    11    9   12       1
    12    9   13       1
    13   13   14       1
    14   14   15       1
    15   15   16       1
    16   15   17       1
    17   16   21       1
    18   17   18       1
    19   17   19       1
    20   19   20       1
    21   19   21       1
    22   21   22       1
    23   22   23       1
    24   22   31       1
    25   23   24       2
    26   24   25       1
    27   25   26      ar
    28   25   31      ar
    29   26   27       1
    30   26   28      ar
    31   28   29      ar
    32   29   30      ar
    33   30   31      ar
    34   29   43       1
    35   27   42       1
    36   27   41       1
    37   23   40       1
    38   14   32       1
    39   14   33       1
    40   15   34       1
    41   17   35       1
    42   18   36       1
    43   19   37       1
    44   20   38       1
    45   21   39       1
@<TRIPOS>SUBSTRUCTURE
     1 ATP501      1 GROUP             4 H     ATP     0 **** ATP H 501
