@<TRIPOS>MOLECULE
4rmj_NCA_2_ligand
   15    15     1     0     0
SMALL
NO_CHARGES


@<TRIPOS>ATOM
     1 N1          13.3960    -8.0080   -23.5030 N.ar         1 NCA402   0.0000
     2 C2          12.8110    -9.0240   -22.8500 C.ar         1 NCA402   0.0000
     3 C3          13.5450   -10.1800   -22.5460 C.ar         1 NCA402   0.0000
     4 C4          14.8790   -10.2950   -22.9430 C.ar         1 NCA402   0.0000
     5 C5          15.4520    -9.2440   -23.6230 C.ar         1 NCA402   0.0000
     6 C6          14.6830    -8.1020   -23.8830 C.ar         1 NCA402   0.0000
     7 C7          12.8960   -11.3370   -21.8270 C.2          1 NCA402   0.0000
     8 O7          13.3720   -12.4280   -22.0910 O.2          1 NCA402   0.0000
     9 N7          11.8630   -11.1310   -20.9730 N.am         1 NCA402   0.0000
    10 H1          11.8505    -8.9569   -22.5798 H            1 NCA402   0.0000
    11 H2          15.4051   -11.1205   -22.7384 H            1 NCA402   0.0000
    12 H3          16.4033    -9.2949   -23.9270 H            1 NCA402   0.0000
    13 H4          15.1035    -7.3337   -24.3656 H            1 NCA402   0.0000
    14 H5          11.4412   -11.9060   -20.5024 H            1 NCA402   0.0000
    15 H6          11.5231   -10.2041   -20.8138 H            1 NCA402   0.0000
@<TRIPOS>BOND
     1    1    2      ar
     2    1    6      ar
     3    2    3      ar
     4    3    4      ar
     5    3    7       1
     6    4    5      ar
     7    5    6      ar
     8    7    8       2
     9    7    9      am
    10    2   10       1
    11    4   11       1
    12    5   12       1
    13    6   13       1
    14    9   14       1
    15    9   15       1
@<TRIPOS>SUBSTRUCTURE
     1 NCA402      1 GROUP             4 A     NCA     0 **** NCA A 402
