@<TRIPOS>MOLECULE
4rlh_0WE_2_ligand
   47    50     1     0     0
SMALL
NO_CHARGES


@<TRIPOS>ATOM
     1 O2          46.7350   -19.7160   -13.6080 O.2          1 0WE500   0.0000
     2 C1          46.6000   -18.5620   -13.1920 C.2          1 0WE500   0.0000
     3 C17         47.6190   -17.9010   -12.3790 C.2          1 0WE500   0.0000
     4 C18         48.7520   -18.5520   -12.0580 C.2          1 0WE500   0.0000
     5 C19         49.8900   -17.9810   -11.3240 C.ar         1 0WE500   0.0000
     6 C24         49.7910   -16.8610   -10.4660 C.ar         1 0WE500   0.0000
     7 C23         50.9440   -16.3930    -9.8080 C.ar         1 0WE500   0.0000
     8 C26         50.9440   -15.2510    -8.8730 C.2          1 0WE500   0.0000
     9 C25         52.0880   -14.8950    -8.2350 C.2          1 0WE500   0.0000
    10 C20         51.1530   -18.5730   -11.4810 C.ar         1 0WE500   0.0000
    11 N21         52.2610   -18.1330   -10.8570 N.ar         1 0WE500   0.0000
    12 C22         52.1600   -17.0700   -10.0340 C.ar         1 0WE500   0.0000
    13 N36         53.3040   -16.6130    -9.3660 N.pl3        1 0WE500   0.0000
    14 C37         53.3560   -15.5870    -8.4960 C.2          1 0WE500   0.0000
    15 O28         54.4280   -15.2700    -7.9810 O.2          1 0WE500   0.0000
    16 N3          45.4860   -17.8460   -13.4840 N.am         1 0WE500   0.0000
    17 C4          44.4530   -18.4520   -14.3330 C.3          1 0WE500   0.0000
    18 C5          45.2470   -16.4400   -13.1340 C.3          1 0WE500   0.0000
    19 C6          45.9530   -15.5570   -14.1040 C.2          1 0WE500   0.0000
    20 O10         47.3210   -15.4720   -14.0160 O.2          1 0WE500   0.0000
    21 C9          47.7530   -14.8890   -15.1900 C.ar         1 0WE500   0.0000
    22 C8          46.6300   -14.5950   -15.9980 C.ar         1 0WE500   0.0000
    23 C7          45.4720   -14.9960   -15.2640 C.2          1 0WE500   0.0000
    24 C38         44.0470   -14.9070   -15.7250 C.3          1 0WE500   0.0000
    25 C14         49.0680   -14.5910   -15.5780 C.ar         1 0WE500   0.0000
    26 C13         49.2700   -13.9540   -16.8200 C.ar         1 0WE500   0.0000
    27 C12         48.1700   -13.6680   -17.6550 C.ar         1 0WE500   0.0000
    28 C11         46.8630   -14.0060   -17.2540 C.ar         1 0WE500   0.0000
    29 H1          47.4740   -16.9641   -12.0610 H            1 0WE500   0.0000
    30 H2          48.8261   -19.5074   -12.3437 H            1 0WE500   0.0000
    31 H3          48.9111   -16.4063   -10.3282 H            1 0WE500   0.0000
    32 H4          50.1006   -14.7392    -8.7094 H            1 0WE500   0.0000
    33 H5          52.0665   -14.1456    -7.5733 H            1 0WE500   0.0000
    34 H6          51.2336   -19.3632   -12.0885 H            1 0WE500   0.0000
    35 H7          54.1609   -17.0934    -9.5528 H            1 0WE500   0.0000
    36 H8          43.7006   -17.8049   -14.4558 H            1 0WE500   0.0000
    37 H9          44.8454   -18.6799   -15.2241 H            1 0WE500   0.0000
    38 H10         44.1094   -19.2840   -13.8974 H            1 0WE500   0.0000
    39 H11         45.5910   -16.2635   -12.2118 H            1 0WE500   0.0000
    40 H12         44.2655   -16.2514   -13.1655 H            1 0WE500   0.0000
    41 H13         44.0114   -14.4430   -16.6101 H            1 0WE500   0.0000
    42 H14         43.6679   -15.8279   -15.8159 H            1 0WE500   0.0000
    43 H15         43.5119   -14.3908   -15.0562 H            1 0WE500   0.0000
    44 H16         49.8419   -14.8242   -14.9892 H            1 0WE500   0.0000
    45 H17         50.1944   -13.7048   -17.1089 H            1 0WE500   0.0000
    46 H18         48.3191   -13.2222   -18.5377 H            1 0WE500   0.0000
    47 H19         46.0940   -13.8258   -17.8674 H            1 0WE500   0.0000
@<TRIPOS>BOND
     1    1    2       2
     2    2    3       1
     3    2   16      am
     4    3    4       2
     5    4    5       1
     6    5    6      ar
     7    5   10      ar
     8    6    7      ar
     9    7    8       1
    10    7   12      ar
    11    8    9       2
    12    9   14       1
    13   10   11      ar
    14   11   12      ar
    15   12   13       1
    16   13   14       1
    17   14   15       2
    18   16   17       1
    19   16   18       1
    20   18   19       1
    21   19   20       1
    22   19   23       2
    23   20   21       1
    24   21   22      ar
    25   21   25      ar
    26   22   23       1
    27   22   28      ar
    28   23   24       1
    29   25   26      ar
    30   26   27      ar
    31   27   28      ar
    32    3   29       1
    33    4   30       1
    34    6   31       1
    35    8   32       1
    36    9   33       1
    37   10   34       1
    38   13   35       1
    39   17   36       1
    40   17   37       1
    41   17   38       1
    42   18   39       1
    43   18   40       1
    44   24   41       1
    45   24   42       1
    46   24   43       1
    47   25   44       1
    48   26   45       1
    49   27   46       1
    50   28   47       1
@<TRIPOS>SUBSTRUCTURE
     1 0WE500      1 GROUP             4 B     0WE     0 **** 0WE B 500
