@<TRIPOS>MOLECULE
1k4m_NAD_3_ligand
   70    74     1     0     0
SMALL
NO_CHARGES


@<TRIPOS>ATOM
     1 PA          27.7740    52.8240    36.1080 P.3          1 NAD603   0.0000
     2 O1A         27.0470    51.9670    37.0320 O.co2        1 NAD603   0.0000
     3 O2A         26.9370    53.8310    35.3890 O.co2        1 NAD603  -1.0000
     4 O5B         28.4760    51.9140    34.9800 O.3          1 NAD603   0.0000
     5 C5B         29.3760    50.8460    35.3940 C.3          1 NAD603   0.0000
     6 C4B         30.4350    50.7790    34.3010 C.3          1 NAD603   0.0000
     7 O4B         29.8640    50.3330    33.0610 O.3          1 NAD603   0.0000
     8 C3B         31.1270    52.1110    33.9620 C.3          1 NAD603   0.0000
     9 O3B         32.5470    51.9100    33.8670 O.3          1 NAD603   0.0000
    10 C2B         30.4520    52.4930    32.6590 C.3          1 NAD603   0.0000
    11 O2B         31.2990    53.3680    31.9020 O.3          1 NAD603   0.0000
    12 C1B         30.2750    51.1250    31.9910 C.3          1 NAD603   0.0000
    13 N9A         29.1780    51.0660    31.0490 N.pl3        1 NAD603   0.0000
    14 C8A         27.8710    51.4370    31.2770 C.2          1 NAD603   0.0000
    15 N7A         27.0720    51.2500    30.2170 N.2          1 NAD603   0.0000
    16 C5A         27.9500    50.7220    29.2740 C.ar         1 NAD603   0.0000
    17 C6A         27.7420    50.2970    27.9370 C.ar         1 NAD603   0.0000
    18 N6A         26.5630    50.3360    27.3310 N.pl3        1 NAD603   0.0000
    19 N1A         28.8300    49.8080    27.2360 N.ar         1 NAD603   0.0000
    20 C2A         30.0470    49.7690    27.8630 C.ar         1 NAD603   0.0000
    21 N3A         30.3180    50.1470    29.1050 N.ar         1 NAD603   0.0000
    22 C4A         29.2410    50.6150    29.7600 C.ar         1 NAD603   0.0000
    23 O3          28.9680    53.4860    36.9540 O.3          1 NAD603   0.0000
    24 PN          29.6370    54.9510    36.7610 P.3          1 NAD603   0.0000
    25 O1N         28.8810    56.0470    37.4050 O.co2        1 NAD603   0.0000
    26 O2N         29.9100    55.2250    35.3120 O.co2        1 NAD603  -1.0000
    27 O5D         30.9440    54.6320    37.6620 O.3          1 NAD603   0.0000
    28 C5D         31.9540    53.6770    37.1990 C.3          1 NAD603   0.0000
    29 C4D         33.0300    53.5810    38.2720 C.3          1 NAD603   0.0000
    30 O4D         33.8020    54.8360    38.3380 O.3          1 NAD603   0.0000
    31 C3D         32.5200    53.3200    39.7000 C.3          1 NAD603   0.0000
    32 O3D         33.3680    52.4130    40.4200 O.3          1 NAD603   0.0000
    33 C2D         32.5700    54.7140    40.3240 C.3          1 NAD603   0.0000
    34 O2D         32.6100    54.6720    41.7570 O.3          1 NAD603   0.0000
    35 C1D         33.8180    55.2590    39.7020 C.3          1 NAD603   0.0000
    36 N1N         33.9560    56.7260    39.8450 N.ar         1 NAD603   1.0000
    37 C2N         34.7940    57.2010    40.8610 C.ar         1 NAD603   0.0000
    38 C3N         35.0110    58.6210    41.1010 C.ar         1 NAD603   0.0000
    39 C7N         35.9320    58.9320    42.2250 C.2          1 NAD603   0.0000
    40 O7N         36.3849    57.9191    42.8072 O.2          1 NAD603   0.0000
    41 N7N         36.2456    60.2015    42.5786 N.am         1 NAD603   0.0000
    42 C4N         34.3230    59.6160    40.2390 C.ar         1 NAD603   0.0000
    43 C5N         33.4350    59.0270    39.1620 C.ar         1 NAD603   0.0000
    44 C6N         33.3000    57.6850    39.0260 C.ar         1 NAD603   0.0000
    45 H5B1        28.8842    49.9778    35.4609 H            1 NAD603   0.0000
    46 H5B2        29.7944    51.0610    36.2764 H            1 NAD603   0.0000
    47 H4B         31.1352    50.1219    34.5802 H            1 NAD603   0.0000
    48 H3B         30.9236    52.7917    34.6658 H            1 NAD603   0.0000
    49 H5          33.0210    52.7494    34.1330 H            1 NAD603   0.0000
    50 H2B         29.5646    52.9206    32.8316 H            1 NAD603   0.0000
    51 H7          30.8445    53.6133    31.0457 H            1 NAD603   0.0000
    52 H1B         31.1287    50.7938    31.5892 H            1 NAD603   0.0000
    53 H8A         27.5498    51.8093    32.1478 H            1 NAD603   0.0000
    54 H6A1        26.4763    50.0225    26.3854 H            1 NAD603   0.0000
    55 H6A2        25.7607    50.6789    27.8197 H            1 NAD603   0.0000
    56 H2A         30.8141    49.4175    27.3263 H            1 NAD603   0.0000
    57 H5D1        32.3565    53.9966    36.3412 H            1 NAD603   0.0000
    58 H5D2        31.5345    52.7805    37.0567 H            1 NAD603   0.0000
    59 H4D         33.6554    52.8415    38.0229 H            1 NAD603   0.0000
    60 H3D         31.5801    52.9791    39.6794 H            1 NAD603   0.0000
    61 H17         32.8213    51.8991    41.0811 H            1 NAD603   0.0000
    62 H2D         31.7803    55.2484    40.0228 H            1 NAD603   0.0000
    63 H19         31.6771    54.6840    42.1170 H            1 NAD603   0.0000
    64 H1D         34.6013    54.8288    40.1507 H            1 NAD603   0.0000
    65 H2N         35.2625    56.5385    41.4455 H            1 NAD603   0.0000
    66 H7N1        36.8698    60.3682    43.3418 H            1 NAD603   0.0000
    67 H7N2        35.8529    60.9719    42.0763 H            1 NAD603   0.0000
    68 H4N         34.4375    60.6020    40.3606 H            1 NAD603   0.0000
    69 H5N         32.9412    59.6371    38.5424 H            1 NAD603   0.0000
    70 H6N         32.6991    57.3473    38.3015 H            1 NAD603   0.0000
@<TRIPOS>BOND
     1    1    2      ar
     2    1    3      ar
     3    1    4       1
     4    1   23       1
     5    4    5       1
     6    5    6       1
     7    6    7       1
     8    6    8       1
     9    7   12       1
    10    8    9       1
    11    8   10       1
    12   10   11       1
    13   10   12       1
    14   12   13       1
    15   13   14       1
    16   13   22       1
    17   14   15       2
    18   15   16       1
    19   16   17      ar
    20   16   22      ar
    21   17   18       1
    22   17   19      ar
    23   19   20      ar
    24   20   21      ar
    25   21   22      ar
    26   23   24       1
    27   24   25      ar
    28   24   26      ar
    29   24   27       1
    30   27   28       1
    31   28   29       1
    32   29   30       1
    33   29   31       1
    34   30   35       1
    35   31   32       1
    36   31   33       1
    37   33   34       1
    38   33   35       1
    39   35   36       1
    40   36   37      ar
    41   36   44      ar
    42   37   38      ar
    43   38   39       1
    44   38   42      ar
    45   39   40       2
    46   39   41      am
    47   42   43      ar
    48   43   44      ar
    49   44   70       1
    50    5   45       1
    51    5   46       1
    52    6   47       1
    53    8   48       1
    54    9   49       1
    55   10   50       1
    56   11   51       1
    57   12   52       1
    58   14   53       1
    59   18   54       1
    60   18   55       1
    61   20   56       1
    62   43   69       1
    63   28   57       1
    64   28   58       1
    65   29   59       1
    66   31   60       1
    67   32   61       1
    68   33   62       1
    69   34   63       1
    70   35   64       1
    71   37   65       1
    72   41   66       1
    73   41   67       1
    74   42   68       1
@<TRIPOS>SUBSTRUCTURE
     1 NAD603      1 GROUP             4 C     NAD     0 **** NAD C 603
