@<TRIPOS>MOLECULE
1u9q_186_1_ligand
   56    57     1     0     0
SMALL
NO_CHARGES


@<TRIPOS>ATOM
     1 O34          0.4750    13.3590     5.6950 O.2          1 186300   0.0000
     2 C18          0.9950    12.3210     5.3570 C.2          1 186300   0.0000
     3 O26          0.9730    12.0230     3.9440 O.3          1 186300   0.0000
     4 C27          0.5600    13.1480     3.1000 C.3          1 186300   0.0000
     5 C28          0.6860    12.9310     1.6070 C.ar         1 186300   0.0000
     6 C33         -0.3500    12.3090     0.8840 C.ar         1 186300   0.0000
     7 C32         -0.1760    12.0660    -0.4760 C.ar         1 186300   0.0000
     8 C31          1.0220    12.4600    -1.0970 C.ar         1 186300   0.0000
     9 C30          2.0620    13.0820    -0.4130 C.ar         1 186300   0.0000
    10 C29          1.8620    13.3130     0.9520 C.ar         1 186300   0.0000
    11 N17          1.4450    11.6290     6.3750 N.am         1 186300   0.0000
    12 C13          2.1900    10.4510     6.4240 C.3          1 186300   0.0000
    13 C16          1.6550     9.5380     7.5260 C.3          1 186300   0.0000
    14 C20          0.4820     8.7330     6.9740 C.ar         1 186300   0.0000
    15 C25          0.7060     7.6150     6.1920 C.ar         1 186300   0.0000
    16 C24         -0.3850     6.9020     5.7020 C.ar         1 186300   0.0000
    17 C23         -1.6930     7.3010     5.9750 C.ar         1 186300   0.0000
    18 C22         -1.9320     8.4270     6.7550 C.ar         1 186300   0.0000
    19 C21         -0.8330     9.1340     7.2520 C.ar         1 186300   0.0000
    20 C12          3.4900    11.0810     6.7950 C.2          1 186300   0.0000
    21 O19          4.3300    11.2030     5.9300 O.2          1 186300   0.0000
    22 N11          3.7000    11.5520     8.0020 N.am         1 186300   0.0000
    23 C8           5.0470    12.1390     8.2600 C.3          1 186300   0.0000
    24 C14          4.9760    13.6750     8.4460 C.3          1 186300   0.0000
    25 C7           5.7550    11.4910     9.4630 C.3          1 186300   0.0000
    26 C6           5.8110    12.3330    10.4850 C.3          1 186300   0.0000
    27 C5           6.3540    12.2420    11.8320 C.2          1 186300   0.0000
    28 O10          7.4730    11.8350    12.0670 O.2          1 186300   0.0000
    29 C4           5.4820    12.7690    12.8930 C.2          1 186300   0.0000
    30 O9           5.5430    12.2720    13.9960 O.2          1 186300   0.0000
    31 H12          1.1228    13.9377     3.3441 H            1 186300   0.0000
    32 H13         -0.3990    13.3471     3.3015 H            1 186300   0.0000
    33 H14         -1.1994    12.0453     1.3412 H            1 186300   0.0000
    34 H15         -0.8954    11.6161    -1.0052 H            1 186300   0.0000
    35 H16          1.1319    12.2852    -2.0755 H            1 186300   0.0000
    36 H17          2.9083    13.3499    -0.8734 H            1 186300   0.0000
    37 H18          2.5828    13.7658     1.4768 H            1 186300   0.0000
    38 H11          1.2147    12.0111     7.2700 H            1 186300   0.0000
    39 H10          2.2310     9.9910     5.5370 H            1 186300   0.0000
    40 H19          1.3479    10.0910     8.3005 H            1 186300   0.0000
    41 H20          2.3776     8.9155     7.8266 H            1 186300   0.0000
    42 H21          1.6387     7.3225     5.9812 H            1 186300   0.0000
    43 H22         -0.2275     6.0877     5.1433 H            1 186300   0.0000
    44 H23         -2.4612     6.7759     5.6088 H            1 186300   0.0000
    45 H24         -2.8658     8.7234     6.9553 H            1 186300   0.0000
    46 H25         -0.9879     9.9435     7.8183 H            1 186300   0.0000
    47 H1           2.9950    11.5191     8.7105 H            1 186300   0.0000
    48 H2           5.6092    11.9620     7.4522 H            1 186300   0.0000
    49 H7           5.8941    14.0329     8.6165 H            1 186300   0.0000
    50 H8           4.6032    14.0941     7.6181 H            1 186300   0.0000
    51 H9           4.3849    13.8896     9.2235 H            1 186300   0.0000
    52 H6           4.8514    13.5226    12.7074 H            1 186300   0.0000
    53 H3           6.6843    11.6667     9.1381 H            1 186300   0.0000
    54 H4           4.8508    12.5641    10.6420 H            1 186300   0.0000
    55 H5           6.2860    13.1249    10.1014 H            1 186300   0.0000
    56 H110         5.6720     9.4940     8.7920 H            1 186300    0.0000
@<TRIPOS>BOND
     1   29   52       1
     2   26   55       1
     3   26   54       1
     4   25   56       1
     5    1    2       2
     6    2    3       1
     7    2   11      am
     8    3    4       1
     9    4    5       1
    10    5    6      ar
    11    5   10      ar
    12    6    7      ar
    13    7    8      ar
    14    8    9      ar
    15    9   10      ar
    16   11   12       1
    17   12   13       1
    18   12   20       1
    19   13   14       1
    20   14   15      ar
    21   14   19      ar
    22   15   16      ar
    23   16   17      ar
    24   17   18      ar
    25   18   19      ar
    26   20   21       2
    27   20   22      am
    28   22   23       1
    29   23   24       1
    30   23   25       1
    31   25   26       1
    32   26   27       1
    33   27   28       2
    34   27   29       1
    35   29   30       2
    36    4   31       1
    37    4   32       1
    38    6   33       1
    39    7   34       1
    40    8   35       1
    41    9   36       1
    42   10   37       1
    43   11   38       1
    44   12   39       1
    45   13   40       1
    46   13   41       1
    47   15   42       1
    48   16   43       1
    49   17   44       1
    50   18   45       1
    51   19   46       1
    52   22   47       1
    53   23   48       1
    54   24   49       1
    55   24   50       1
    56   24   51       1
    57   25   53       1
@<TRIPOS>SUBSTRUCTURE
     1 186300      1 GROUP             4 X     186     0 **** 186 X 300
