@<TRIPOS>MOLECULE
4rrd_A3T_1_ligand
   48    50     1     0     0
SMALL
NO_CHARGES


@<TRIPOS>ATOM
     1 C            3.0030   -12.3880     3.5540 C.2          1 A3T501   0.0000
     2 N            3.2890   -10.1680     2.5610 N.4          1 A3T501   1.0000
     3 O            1.6670   -12.3120     3.2150 O.2          1 A3T501   0.0000
     4 N1          -0.7820   -17.5030    -0.7900 N.ar         1 A3T501   0.0000
     5 C2           0.1940   -16.5810    -0.8990 C.ar         1 A3T501   0.0000
     6 N3           1.2230   -16.4920    -0.0240 N.ar         1 A3T501   0.0000
     7 C4           1.2880   -17.3770     0.9980 C.ar         1 A3T501   0.0000
     8 C5           0.3130   -18.3570     1.1270 C.ar         1 A3T501   0.0000
     9 C6          -0.7590   -18.4070     0.2010 C.ar         1 A3T501   0.0000
    10 N6          -1.6750   -19.3550     0.3160 N.pl3        1 A3T501   0.0000
    11 N7           0.6150   -19.1120     2.2090 N.2          1 A3T501   0.0000
    12 C8           1.7490   -18.6290     2.7250 C.2          1 A3T501   0.0000
    13 N8           3.7350   -13.5230     3.7750 N.am         1 A3T501   0.0000
    14 N9           2.1810   -17.5620     2.0020 N.pl3        1 A3T501   0.0000
    15 CA           3.6890   -11.0110     3.7420 C.3          1 A3T501   0.0000
    16 CB           3.2540   -10.4090     5.1140 C.3          1 A3T501   0.0000
    17 OG           4.2760    -9.5410     5.7370 O.3          1 A3T501   0.0000
    18 C1'          3.4860   -16.7740     2.2350 C.3          1 A3T501   0.0000
    19 C2'          3.5920   -15.2680     2.1340 C.3          1 A3T501   0.0000
    20 O2'          4.9600   -14.8460     1.7810 O.3          1 A3T501   0.0000
    21 C3'          3.2050   -14.8810     3.5820 C.3          1 A3T501   0.0000
    22 C4'          3.9350   -15.9770     4.4170 C.3          1 A3T501   0.0000
    23 O4'          3.9940   -17.1480     3.5710 O.3          1 A3T501   0.0000
    24 C5'          3.1710   -16.5490     5.6570 C.3          1 A3T501   0.0000
    25 O5'          1.9010   -15.8900     5.7560 O.3          1 A3T501   0.0000
    26 CG2          2.7790   -11.5350     6.0880 C.3          1 A3T501   0.0000
    27 H1           3.7102    -9.2644     2.6386 H            1 A3T501   0.0000
    28 H2           3.5972   -10.6081     1.7176 H            1 A3T501   0.0000
    29 H3           0.1567   -15.9335    -1.6602 H            1 A3T501   0.0000
    30 H4          -1.6238   -20.0110     1.0690 H            1 A3T501   0.0000
    31 H5          -2.4184   -19.4154    -0.3501 H            1 A3T501   0.0000
    32 H6           2.2139   -18.9998     3.5290 H            1 A3T501   0.0000
    33 H7           4.6808   -13.4235     4.0842 H            1 A3T501   0.0000
    34 HA           4.6813   -11.1345     3.7369 H            1 A3T501   0.0000
    35 HB           2.4580    -9.8310     4.9340 H            1 A3T501   0.0000
    36 HG           4.5344    -9.9163     6.6271 H            1 A3T501   0.0000
    37 H1'          4.1467   -17.1392     1.5792 H            1 A3T501   0.0000
    38 H2'          2.9278   -14.9073     1.4792 H            1 A3T501   0.0000
    39 H13          5.1440   -13.9464     2.1770 H            1 A3T501   0.0000
    40 H3'          2.2149   -14.9125     3.7191 H            1 A3T501   0.0000
    41 H4'          4.8538   -15.6763     4.6728 H            1 A3T501   0.0000
    42 H5'1         3.7030   -16.3817     6.4871 H            1 A3T501   0.0000
    43 H5'2         3.0321   -17.5327     5.5428 H            1 A3T501   0.0000
    44 H5'          1.2185   -16.4014     5.2338 H            1 A3T501   0.0000
    45 HG21         2.5053   -11.1282     6.9596 H            1 A3T501   0.0000
    46 HG22         2.0005   -12.0170     5.6860 H            1 A3T501   0.0000
    47 HG23         3.5273   -12.1803     6.2417 H            1 A3T501   0.0000
    48 H22          2.2939   -10.0714     2.5422 H            1 A3T501   0.0000
@<TRIPOS>BOND
     1    1    3       2
     2    1   13      am
     3    1   15       1
     4    2   15       1
     5    4    5      ar
     6    4    9      ar
     7    5    6      ar
     8    6    7      ar
     9    7    8      ar
    10    7   14       1
    11    8    9      ar
    12    8   11       1
    13    9   10       1
    14   11   12       2
    15   12   14       1
    16   13   21       1
    17   14   18       1
    18   15   16       1
    19   16   17       1
    20   16   26       1
    21   18   19       1
    22   18   23       1
    23   19   20       1
    24   19   21       1
    25   21   22       1
    26   22   23       1
    27   22   24       1
    28   24   25       1
    29    2   27       1
    30    2   28       1
    31    5   29       1
    32   10   30       1
    33   10   31       1
    34   12   32       1
    35   13   33       1
    36   15   34       1
    37   16   35       1
    38   17   36       1
    39   18   37       1
    40   19   38       1
    41   20   39       1
    42   21   40       1
    43   22   41       1
    44   24   42       1
    45   24   43       1
    46   25   44       1
    47   26   45       1
    48   26   46       1
    49   26   47       1
    50    2   48       1
@<TRIPOS>SUBSTRUCTURE
     1 A3T501      1 GROUP             4 A     A3T     0 **** A3T A 501
