@<TRIPOS>MOLECULE
4bfm_ANP_1_ligand
   44    46     1     0     0
SMALL
NO_CHARGES


@<TRIPOS>ATOM
     1 PG          -5.3410   -17.2440   -33.3070 P.3          1 ANP1000   0.0000
     2 O1G         -4.2640   -17.8030   -34.1850 O.co2        1 ANP1000   0.0000
     3 O2G         -6.5490   -18.2570   -33.2390 O.co2        1 ANP1000  -1.0000
     4 O3G         -5.8620   -15.8800   -33.9300 O.co2        1 ANP1000  -1.0000
     5 PB          -5.8030   -16.6450   -30.4980 P.3          1 ANP1000   0.0000
     6 O1B         -6.9910   -17.5610   -30.5740 O.co2        1 ANP1000   0.0000
     7 O2B         -5.0950   -16.9160   -29.1350 O.co2        1 ANP1000  -1.0000
     8 N3B         -4.7020   -16.9640   -31.7460 N.3          1 ANP1000   0.0000
     9 PA          -5.3930   -13.8940   -30.9040 P.3          1 ANP1000   0.0000
    10 O1A         -4.2610   -13.7650   -29.9520 O.co2        1 ANP1000   0.0000
    11 O2A         -4.9840   -14.0560   -32.3720 O.co2        1 ANP1000  -1.0000
    12 O3A         -6.3170   -15.1480   -30.5240 O.3          1 ANP1000   0.0000
    13 O5'         -6.3150   -12.6180   -30.7460 O.3          1 ANP1000   0.0000
    14 C5'         -7.6100   -12.5410   -31.3830 C.3          1 ANP1000   0.0000
    15 C4'         -7.9540   -11.0990   -31.6900 C.3          1 ANP1000   0.0000
    16 O4'         -8.1580   -10.3590   -30.4630 O.3          1 ANP1000   0.0000
    17 C3'         -6.8900   -10.3030   -32.4310 C.3          1 ANP1000   0.0000
    18 O3'         -6.8940   -10.5430   -33.8310 O.3          1 ANP1000   0.0000
    19 C2'         -7.2950    -8.8710   -32.0840 C.3          1 ANP1000   0.0000
    20 O2'         -8.4340    -8.4700   -32.8370 O.3          1 ANP1000   0.0000
    21 C1'         -7.6810    -9.0310   -30.6150 C.3          1 ANP1000   0.0000
    22 N9          -6.5580    -8.8260   -29.6970 N.pl3        1 ANP1000   0.0000
    23 C8          -5.6580    -9.7620   -29.2490 C.2          1 ANP1000   0.0000
    24 N7          -4.7460    -9.2880   -28.4440 N.2          1 ANP1000   0.0000
    25 C5          -5.0560    -7.9430   -28.3490 C.ar         1 ANP1000   0.0000
    26 C6          -4.4550    -6.8740   -27.6430 C.ar         1 ANP1000   0.0000
    27 N6          -3.3800    -7.0130   -26.8720 N.pl3        1 ANP1000   0.0000
    28 N1          -5.0140    -5.6460   -27.7750 N.ar         1 ANP1000   0.0000
    29 C2          -6.0810    -5.5030   -28.5620 C.ar         1 ANP1000   0.0000
    30 N3          -6.7280    -6.4300   -29.2710 N.ar         1 ANP1000   0.0000
    31 C4          -6.1600    -7.6350   -29.1190 C.ar         1 ANP1000   0.0000
    32 H3B         -4.0861   -16.1789   -31.8105 H            1 ANP1000   0.0000
    33 H5'1        -8.3027   -12.9232   -30.7714 H            1 ANP1000   0.0000
    34 H5'2        -7.5914   -13.0651   -32.2345 H            1 ANP1000   0.0000
    35 H4'         -8.8002   -11.0772   -32.2225 H            1 ANP1000   0.0000
    36 H3'         -5.9867   -10.5042   -32.0522 H            1 ANP1000   0.0000
    37 H6          -7.0665    -9.6855   -34.3157 H            1 ANP1000   0.0000
    38 H2'         -6.5331    -8.2335   -32.1985 H            1 ANP1000   0.0000
    39 H8          -8.6807    -7.5318   -32.5942 H            1 ANP1000   0.0000
    40 H1'         -8.4135    -8.3877   -30.3923 H            1 ANP1000   0.0000
    41 H10         -5.6980   -10.7247   -29.5167 H            1 ANP1000   0.0000
    42 H11         -2.9994    -6.2196   -26.3970 H            1 ANP1000   0.0000
    43 H12         -2.9524    -7.9109   -26.7674 H            1 ANP1000   0.0000
    44 H13         -6.4460    -4.5745   -28.6301 H            1 ANP1000   0.0000
@<TRIPOS>BOND
     1    1    2      ar
     2    1    3      ar
     3    1    4      ar
     4    1    8       1
     5    5    6      ar
     6    5    7      ar
     7    5    8       1
     8    5   12       1
     9    9   10      ar
    10    9   11      ar
    11    9   12       1
    12    9   13       1
    13   13   14       1
    14   14   15       1
    15   15   16       1
    16   15   17       1
    17   16   21       1
    18   17   18       1
    19   17   19       1
    20   19   20       1
    21   19   21       1
    22   21   22       1
    23   22   23       1
    24   22   31       1
    25   23   24       2
    26   24   25       1
    27   25   26      ar
    28   25   31      ar
    29   26   27       1
    30   26   28      ar
    31   28   29      ar
    32   29   30      ar
    33   30   31      ar
    34   29   44       1
    35   27   43       1
    36   27   42       1
    37    8   32       1
    38   23   41       1
    39   14   33       1
    40   14   34       1
    41   15   35       1
    42   17   36       1
    43   18   37       1
    44   19   38       1
    45   20   39       1
    46   21   40       1
@<TRIPOS>SUBSTRUCTURE
     1 ANP1000     1 GROUP             4 A     ANP     0 **** ANP A1000
