@<TRIPOS>MOLECULE
4b7x_NAP_11_ligand
   73    77     1     0     0
SMALL
NO_CHARGES


@<TRIPOS>ATOM
     1 PA         -48.1900    13.9700   -82.7300 P.3          1 NAP400   0.0000
     2 O1A        -48.5330    12.5350   -83.3840 O.co2        1 NAP400   0.0000
     3 O2A        -49.3110    14.3420   -81.8380 O.co2        1 NAP400  -1.0000
     4 O5B        -47.9670    14.9740   -83.9790 O.3          1 NAP400   0.0000
     5 C5B        -47.8580    16.3980   -83.8090 C.3          1 NAP400   0.0000
     6 C4B        -49.2470    17.0620   -83.6620 C.3          1 NAP400   0.0000
     7 O4B        -49.0400    18.2000   -82.8210 O.3          1 NAP400   0.0000
     8 C3B        -49.7910    17.6640   -84.9550 C.3          1 NAP400   0.0000
     9 O3B        -50.4790    16.6520   -85.7090 O.3          1 NAP400   0.0000
    10 C2B        -50.7480    18.7450   -84.4230 C.3          1 NAP400   0.0000
    11 O2B        -52.0690    18.2300   -84.1450 O.3          1 NAP400   0.0000
    12 C1B        -50.0950    19.1520   -83.0930 C.3          1 NAP400   0.0000
    13 N9A        -49.4420    20.4930   -83.1570 N.pl3        1 NAP400   0.0000
    14 C8A        -48.2890    20.7880   -83.7640 C.2          1 NAP400   0.0000
    15 N7A        -48.0240    22.0850   -83.6030 N.2          1 NAP400   0.0000
    16 C5A        -49.0140    22.6130   -82.8880 C.ar         1 NAP400   0.0000
    17 C6A        -49.2840    23.8930   -82.4160 C.ar         1 NAP400   0.0000
    18 N6A        -48.4380    24.8790   -82.6760 N.pl3        1 NAP400   0.0000
    19 N1A        -50.4040    24.1150   -81.7010 N.ar         1 NAP400   0.0000
    20 C2A        -51.2510    23.1220   -81.4360 C.ar         1 NAP400   0.0000
    21 N3A        -51.0240    21.8820   -81.8740 N.ar         1 NAP400   0.0000
    22 C4A        -49.9170    21.6030   -82.5980 C.ar         1 NAP400   0.0000
    23 O3         -46.7240    13.7850   -82.0260 O.3          1 NAP400   0.0000
    24 PN         -46.5360    12.7990   -80.7180 P.3          1 NAP400   0.0000
    25 O1N        -45.3870    11.8980   -80.9080 O.co2        1 NAP400   0.0000
    26 O2N        -47.8670    12.2550   -80.3700 O.co2        1 NAP400  -1.0000
    27 O5D        -46.0170    13.8900   -79.5870 O.3          1 NAP400   0.0000
    28 C5D        -46.9250    14.6630   -78.7490 C.3          1 NAP400   0.0000
    29 C4D        -46.1520    15.4490   -77.6350 C.3          1 NAP400   0.0000
    30 O4D        -45.5350    14.4800   -76.7530 O.3          1 NAP400   0.0000
    31 C3D        -45.0110    16.3180   -78.1860 C.3          1 NAP400   0.0000
    32 O3D        -44.9900    17.5660   -77.4890 O.3          1 NAP400   0.0000
    33 C2D        -43.7570    15.5030   -77.8790 C.3          1 NAP400   0.0000
    34 O2D        -42.6200    16.3460   -77.6980 O.3          1 NAP400   0.0000
    35 C1D        -44.1360    14.8480   -76.5660 C.3          1 NAP400   0.0000
    36 N1N        -43.4110    13.5940   -76.2500 N.ar         1 NAP400   1.0000
    37 C2N        -42.8760    13.4210   -74.9590 C.ar         1 NAP400   0.0000
    38 C3N        -42.1970    12.2480   -74.6110 C.ar         1 NAP400   0.0000
    39 C7N        -41.6370    12.0950   -73.1890 C.2          1 NAP400   0.0000
    40 O7N        -40.9890    11.1080   -72.8400 O.2          1 NAP400   0.0000
    41 N7N        -41.9650    13.0800   -72.3560 N.am         1 NAP400   0.0000
    42 C4N        -42.0610    11.2320   -75.5630 C.ar         1 NAP400   0.0000
    43 C5N        -42.5960    11.3870   -76.8510 C.ar         1 NAP400   0.0000
    44 C6N        -43.2740    12.5560   -77.1960 C.ar         1 NAP400   0.0000
    45 P2B        -53.4130    19.0990   -84.5020 P.3          1 NAP400   0.0000
    46 O1X        -52.9660    20.6400   -84.5200 O.co2        1 NAP400   0.0000
    47 O2X        -53.6860    18.7680   -86.0540 O.co2        1 NAP400  -1.0000
    48 O3X        -54.6140    18.8240   -83.6770 O.co2        1 NAP400  -1.0000
    49 H5B1       -47.3958    16.7856   -84.6066 H            1 NAP400   0.0000
    50 H5B2       -47.3197    16.5865   -82.9876 H            1 NAP400   0.0000
    51 H4B        -49.9062    16.4297   -83.2550 H            1 NAP400   0.0000
    52 H3B        -49.0555    18.0731   -85.4951 H            1 NAP400   0.0000
    53 H5         -50.8338    17.0501   -86.5550 H            1 NAP400   0.0000
    54 H2B        -50.7929    19.5220   -85.0509 H            1 NAP400   0.0000
    55 H1B        -50.7724    19.1341   -82.3576 H            1 NAP400   0.0000
    56 H8A        -47.7145    20.1379   -84.2613 H            1 NAP400   0.0000
    57 H6A1       -48.6267    25.8015   -82.3393 H            1 NAP400   0.0000
    58 H6A2       -47.6108    24.7006   -83.2089 H            1 NAP400   0.0000
    59 H2A        -52.0731    23.3092   -80.8983 H            1 NAP400   0.0000
    60 H5D1       -47.5757    14.0401   -78.3148 H            1 NAP400   0.0000
    61 H5D2       -47.4201    15.3155   -79.3226 H            1 NAP400   0.0000
    62 H4D        -46.7910    16.0183   -77.1177 H            1 NAP400   0.0000
    63 H3D        -45.1131    16.4600   -79.1706 H            1 NAP400   0.0000
    64 H16        -45.9172    17.8003   -77.1968 H            1 NAP400   0.0000
    65 H2D        -43.5892    14.8184   -78.5883 H            1 NAP400   0.0000
    66 H18        -41.9834    15.9143   -77.0590 H            1 NAP400   0.0000
    67 H1D        -44.0460    15.5004   -75.8135 H            1 NAP400   0.0000
    68 H2N        -42.9830    14.1477   -74.2804 H            1 NAP400   0.0000
    69 H7N1       -41.6434    13.0621   -71.4093 H            1 NAP400   0.0000
    70 H7N2       -42.5330    13.8379   -72.6769 H            1 NAP400   0.0000
    71 H4N        -41.5790    10.3891   -75.3239 H            1 NAP400   0.0000
    72 H5N        -42.4906    10.6557   -77.5248 H            1 NAP400   0.0000
    73 H6N        -43.6622    12.6583   -78.1119 H            1 NAP400   0.0000
@<TRIPOS>BOND
     1    1    2      ar
     2    1    3      ar
     3    1    4       1
     4    1   23       1
     5    4    5       1
     6    5    6       1
     7    6    7       1
     8    6    8       1
     9    7   12       1
    10    8    9       1
    11    8   10       1
    12   10   11       1
    13   10   12       1
    14   11   45       1
    15   12   13       1
    16   13   14       1
    17   13   22       1
    18   14   15       2
    19   15   16       1
    20   16   17      ar
    21   16   22      ar
    22   17   18       1
    23   17   19      ar
    24   19   20      ar
    25   20   21      ar
    26   21   22      ar
    27   23   24       1
    28   24   25      ar
    29   24   26      ar
    30   24   27       1
    31   27   28       1
    32   28   29       1
    33   29   30       1
    34   29   31       1
    35   30   35       1
    36   31   32       1
    37   31   33       1
    38   33   34       1
    39   33   35       1
    40   35   36       1
    41   36   37      ar
    42   36   44      ar
    43   37   38      ar
    44   38   39       1
    45   38   42      ar
    46   39   40       2
    47   39   41      am
    48   42   43      ar
    49   43   44      ar
    50   45   46      ar
    51   45   47      ar
    52   45   48      ar
    53   43   72       1
    54    5   49       1
    55    5   50       1
    56    6   51       1
    57    8   52       1
    58    9   53       1
    59   10   54       1
    60   12   55       1
    61   14   56       1
    62   18   57       1
    63   18   58       1
    64   20   59       1
    65   44   73       1
    66   28   60       1
    67   28   61       1
    68   29   62       1
    69   31   63       1
    70   32   64       1
    71   33   65       1
    72   34   66       1
    73   35   67       1
    74   37   68       1
    75   41   69       1
    76   41   70       1
    77   42   71       1
@<TRIPOS>SUBSTRUCTURE
     1 NAP400      1 GROUP             4 K     NAP     0 **** NAP K 400
