@<TRIPOS>MOLECULE
4ttj_FMC_2_ligand
   32    34     1     0     0
SMALL
NO_CHARGES


@<TRIPOS>ATOM
     1 N1          20.4280   -42.8020    22.3210 N.ar         1 FMC302   0.0000
     2 C2          21.0420   -43.9240    21.7410 C.ar         1 FMC302   0.0000
     3 N3          20.2940   -44.8130    20.8890 N.ar         1 FMC302   0.0000
     4 C4          18.8810   -44.5440    20.6210 C.ar         1 FMC302   0.0000
     5 C5          18.2700   -43.4170    21.2020 C.ar         1 FMC302   0.0000
     6 C6          19.0190   -42.5330    22.0580 C.ar         1 FMC302   0.0000
     7 N6          18.3680   -41.3690    22.6750 N.pl3        1 FMC302   0.0000
     8 N7          16.9220   -43.3670    20.8020 N.pl3        1 FMC302   0.0000
     9 N8          16.7150   -44.4420    20.0000 N.2          1 FMC302   0.0000
    10 C9          17.9330   -45.1820    19.8680 C.2          1 FMC302   0.0000
    11 C1'         18.0290   -46.5130    19.0820 C.3          1 FMC302   0.0000
    12 C2'         19.4410   -47.0830    18.8360 C.3          1 FMC302   0.0000
    13 O2'         19.7110   -47.1580    17.4600 O.3          1 FMC302   0.0000
    14 C3'         19.4300   -48.4540    19.5340 C.3          1 FMC302   0.0000
    15 O3'         19.2580   -49.4900    18.5640 O.3          1 FMC302   0.0000
    16 C4'         18.2150   -48.4020    20.4380 C.3          1 FMC302   0.0000
    17 O4'         17.3060   -47.4650    19.8340 O.3          1 FMC302   0.0000
    18 C5'         18.4700   -48.0090    21.8710 C.3          1 FMC302   0.0000
    19 O5'         17.2850   -48.0900    22.6550 O.3          1 FMC302   0.0000
    20 H1          22.0083   -44.1078    21.9212 H            1 FMC302   0.0000
    21 H2          17.4019   -41.1831    22.4957 H            1 FMC302   0.0000
    22 H3          18.8911   -40.7628    23.2741 H            1 FMC302   0.0000
    23 H4          16.2479   -42.6744    21.0586 H            1 FMC302   0.0000
    24 H1'         17.5755   -46.3943    18.1987 H            1 FMC302   0.0000
    25 H2'         20.1182   -46.4926    19.2752 H            1 FMC302   0.0000
    26 H7          19.8936   -48.1082    17.2074 H            1 FMC302   0.0000
    27 H3'         20.2663   -48.5937    20.0642 H            1 FMC302   0.0000
    28 H9          18.2825   -49.6720    18.4401 H            1 FMC302   0.0000
    29 H4'         17.7831   -49.3039    20.4333 H            1 FMC302   0.0000
    30 H5'1        18.8108   -47.0692    21.8941 H            1 FMC302   0.0000
    31 H5'2        19.1580   -48.6227    22.2583 H            1 FMC302   0.0000
    32 H5'         17.5252   -48.3102    23.6004 H            1 FMC302   0.0000
@<TRIPOS>BOND
     1    1    2      ar
     2    1    6      ar
     3    2    3      ar
     4    3    4      ar
     5    4    5      ar
     6    4   10       1
     7    5    6      ar
     8    5    8       1
     9    6    7       1
    10    8    9       1
    11    9   10       2
    12   10   11       1
    13   11   12       1
    14   11   17       1
    15   12   13       1
    16   12   14       1
    17   14   15       1
    18   14   16       1
    19   16   17       1
    20   16   18       1
    21   18   19       1
    22    2   20       1
    23    7   21       1
    24    7   22       1
    25    8   23       1
    26   11   24       1
    27   12   25       1
    28   13   26       1
    29   14   27       1
    30   15   28       1
    31   16   29       1
    32   18   30       1
    33   18   31       1
    34   19   32       1
@<TRIPOS>SUBSTRUCTURE
     1 FMC302      1 GROUP             4 B     FMC     0 **** FMC B 302
