@<TRIPOS>MOLECULE
./coach420/1jie/ligand.pdb
 191 201 0 0 0
SMALL
GASTEIGER

@<TRIPOS>ATOM
      1  NA        21.8690    2.5380   25.9010 N.am  402  BLM402     -0.0865
      2  C2        21.8050    0.8570   24.1110 C.3   402  BLM402      0.1882
      3  C1        22.4470    2.0940   24.7260 C.2   402  BLM402      0.2796
      4  O1        23.3980    2.6860   24.2480 O.2   402  BLM402     -0.2700
      5  NC        19.4920    1.5780   23.5810 N.3   402  BLM402     -0.2093
      6  C3        20.8020    1.2450   23.0140 C.3   402  BLM402      0.1175
      7  NB        21.0250    0.0870   25.1380 N.3   402  BLM402     -0.1214
      8  ND        19.0170    3.6400   20.2630 N.am  402  BLM402     -0.0877
      9  C5        18.4710    1.4290   21.3110 C.3   402  BLM402      0.1136
     10  C4        18.2210    2.9020   21.0380 C.2   402  BLM402      0.2626
     11  O4        17.1840    3.3700   21.6290 O.2   402  BLM402     -0.2716
     12  C8        18.2090   -2.6290   21.9810 C.ar  402  BLM402      0.1686
     13  C9        18.4150   -3.1640   23.3880 C.ar  402  BLM402      0.0351
     14  C10       18.5230   -2.3660   24.4370 C.ar  402  BLM402      0.1363
     15  NG        18.4520   -0.9040   24.2080 N.ar  402  BLM402     -0.2248
     16  C7        18.3300   -0.4770   22.9130 C.ar  402  BLM402      0.1569
     17  NE        18.2520   -1.1650   21.8690 N.ar  402  BLM402     -0.2116
     18  C6        18.3640    1.0430   22.8040 C.3   402  BLM402      0.1401
     19  NF        18.0780   -3.3740   20.8610 N.pl3 402  BLM402     -0.1074
     20  CA        18.4840   -4.6940   23.6160 C.3   402  BLM402      0.0358
     21  C12       18.6530   -2.6420   25.8310 C.2   402  BLM402      0.2828
     22  O12       18.6420   -3.8140   26.2640 O.2   402  BLM402     -0.2667
     23  NH        18.7450   -1.5560   26.6830 N.am  402  BLM402     -0.1898
     24  C13       18.8980   -1.8210   28.1110 C.3   402  BLM402      0.2055
     25  C30       17.6070   -1.8490   28.8790 C.2   402  BLM402      0.2641
     26  O30       17.5720   -2.2300   30.0540 O.2   402  BLM402     -0.2714
     27  C14       19.8540   -0.7620   28.7390 C.3   402  BLM402      0.1841
     28  C27       19.4270    0.6370   28.4010 C.2   402  BLM402      0.0923
     29  OH1       21.1380   -1.0350   28.2350 O.3   402  BLM402     -0.3230
     30  NJ        19.3210    1.0480   27.1500 N.2   402  BLM402     -0.2285
     31  C28       19.1150    1.6260   29.2960 C.3   402  BLM402      0.1707
     32  C29       18.8960    2.2910   27.2800 C.2   402  BLM402      0.1940
     33  NI        18.7310    2.6280   28.5430 N.2   402  BLM402     -0.2439
     34  NK        16.5020   -1.4000   28.2780 N.am  402  BLM402     -0.2031
     35  C34       15.7530    1.2980   29.1740 C.3   402  BLM402      0.1102
     36  C36       15.1090    2.6280   28.7740 C.2   402  BLM402      0.2439
     37  O36       14.2370    3.1300   29.4890 O.2   402  BLM402     -0.2733
     38  OH2       13.5270    0.3470   29.1670 O.3   402  BLM402     -0.2208
     39  C31       15.2590   -1.2620   29.0230 C.3   402  BLM402      0.1261
     40  CB        14.1280   -2.2030   28.6540 C.3   402  BLM402      0.0261
     41  C33       14.8210    0.1790   28.6480 C.3   402  BLM402      0.1803
     42  CC        15.9350    1.2390   30.6820 C.3   402  BLM402      0.0123
     43  NL        15.5100    3.0900   27.6110 N.am  402  BLM402     -0.1950
     44  C37       15.0170    4.2110   26.8440 C.3   402  BLM402      0.2028
     45  C40       13.5320    4.1180   26.5360 C.2   402  BLM402      0.2638
     46  O40       13.0220    3.0600   26.1510 O.2   402  BLM402     -0.2714
     47  C38       15.8390    4.2570   25.5380 C.3   402  BLM402      0.1808
     48  OH3       17.1560    4.4760   26.0230 O.3   402  BLM402     -0.2208
     49  CD        15.3880    5.3760   24.6230 C.3   402  BLM402      0.0379
     50  NM        12.7960    5.2310   26.7740 N.am  402  BLM402     -0.2035
     51  C42       10.8130    6.5160   26.1900 C.3   402  BLM402      0.0760
     52  C49        4.1120   11.4200   26.1520 C.2   402  BLM402      0.2830
     53  O49        4.0170   12.5750   26.5780 O.2   402  BLM402     -0.2667
     54  C43        9.3750    6.6870   25.9480 C.ar  402  BLM402      0.0901
     55  C41       11.3470    5.2030   26.6730 C.3   402  BLM402      0.1220
     56  S43        8.2650    5.6150   25.1490 S.2   402  BLM402     -0.0701
     57  C44        7.0350    6.7490   25.3010 C.ar  402  BLM402      0.0577
     58  C45        7.5430    7.8760   25.9170 C.ar  402  BLM402      0.1117
     59  NN         8.8520    7.7740   26.3670 N.ar  402  BLM402     -0.2406
     60  C47        6.5170   11.3760   26.8530 C.ar  402  BLM402      0.0607
     61  C48        5.4540   10.7320   26.2910 C.ar  402  BLM402      0.1432
     62  NO         5.6840    9.4530   25.8750 N.ar  402  BLM402     -0.2321
     63  C46        6.8730    9.0960   26.1250 C.ar  402  BLM402      0.1290
     64  S46        7.8890   10.3170   26.8830 S.2   402  BLM402     -0.0643
     65  NP         3.2310   10.6300   25.5780 N.am  402  BLM402     -0.2003
     66  C50        1.8670   10.9380   25.2770 C.3   402  BLM402      0.1164
     67  C51        1.0620    9.6580   25.3790 C.3   402  BLM402      0.0343
     68  C52        2.0370    8.4760   25.5740 C.3   402  BLM402      0.0500
     69  S53        2.4970    7.7610   23.9920 S.3   402  BLM402     -0.1777
     70  C55        2.0850    6.0340   24.0730 C.3   402  BLM402      0.0590
     71  C54        4.2560    7.7530   23.8670 C.3   402  BLM402      0.0590
     72  O59       25.1260   -0.2470   30.1380 O.3   402  BLM402     -0.2176
     73  O58       23.6540   -0.4060   26.8600 O.3   402  BLM402     -0.2175
     74  C61       23.0720    1.2630   31.2250 C.3   402  BLM402      0.2142
     75  O61       22.2300    0.6850   32.2020 O.3   402  BLM402     -0.2176
     76  O56       23.0400   -3.1040   27.6010 O.3   402  BLM402     -0.3231
     77  C60       22.8800    0.4860   29.9020 C.3   402  BLM402      0.1835
     78  O62       22.1470   -0.6900   30.2660 O.3   402  BLM402     -0.3257
     79  C63       21.9860   -1.6650   29.2150 C.3   402  BLM402      0.2665
     80  C57       23.3300   -2.1180   28.5960 C.3   402  BLM402      0.2066
     81  C58       24.1610   -0.8980   28.0820 C.3   402  BLM402      0.2166
     82  C59       24.1900    0.2010   29.1600 C.3   402  BLM402      0.2143
     83  C69       23.3130   -5.2570   26.5120 C.3   402  BLM402      0.2502
     84  C68       21.8630   -5.6570   26.1270 C.3   402  BLM402      0.2383
     85  C67       21.0770   -6.1890   27.3210 C.3   402  BLM402      0.2240
     86  C65       21.2630   -5.3490   28.5990 C.3   402  BLM402      0.1846
     87  O64       22.6250   -5.0110   28.8730 O.3   402  BLM402     -0.3255
     88  C64       23.4190   -4.4490   27.8240 C.3   402  BLM402      0.2707
     89  O68       21.7160   -6.6140   25.0600 O.3   402  BLM402     -0.4306
     90  O67       19.7000   -6.1300   27.0270 O.3   402  BLM402     -0.2164
     91  O69       24.0820   -6.4270   26.6890 O.3   402  BLM402     -0.2137
     92  NQ        21.7020   -7.0860   22.8000 N.am  402  BLM402     -0.0475
     93  C70       21.9010   -6.1600   23.8000 C.2   402  BLM402      0.4411
     94  O70       22.2150   -5.0150   23.5390 O.2   402  BLM402     -0.2228
     95  O66       20.9900   -5.2940   30.9260 O.3   402  BLM402     -0.2176
     96  C66       20.7710   -6.1350   29.8180 C.3   402  BLM402      0.2142
     97  C2        21.8960   -1.4230    2.8860 C.3   401  BLM401      0.1734
     98  C1        22.3330   -2.8190    2.4620 C.2   401  BLM401      0.2275
     99  O1        22.9990   -3.5820    3.1320 O.2   401  BLM401     -0.2867
    100  NC        19.5910   -1.8740    3.6300 N.3   401  BLM401     -0.2093
    101  C3        20.8980   -1.4040    4.0490 C.3   401  BLM401      0.1161
    102  NB        21.2000   -0.7270    1.7370 N.3   401  BLM401     -0.1229
    103  ND        19.1220   -4.0230    6.5150 N.am  401  BLM401     -0.0877
    104  C5        18.2240   -1.8110    5.7840 C.3   401  BLM401      0.1136
    105  C4        18.1340   -3.3260    5.9160 C.2   401  BLM401      0.2626
    106  O4        17.0830   -3.8950    5.4380 O.2   401  BLM401     -0.2716
    107  C8        18.2780    2.3340    5.1640 C.ar  401  BLM401      0.1686
    108  C9        18.4900    2.8620    3.7410 C.ar  401  BLM401      0.0351
    109  C10       18.5850    2.0380    2.7260 C.ar  401  BLM401      0.1363
    110  NG        18.4920    0.5650    2.9410 N.ar  401  BLM401     -0.2248
    111  C7        18.3700    0.1680    4.2530 C.ar  401  BLM401      0.1569
    112  NE        18.2620    0.8850    5.2540 N.ar  401  BLM401     -0.2116
    113  C6        18.3890   -1.3550    4.3240 C.3   401  BLM401      0.1401
    114  NF        18.1770    3.2280    6.1660 N.pl3 401  BLM401     -0.1074
    115  CA        18.6120    4.3800    3.6320 C.3   401  BLM401      0.0358
    116  C12       18.7720    2.2960    1.3280 C.2   401  BLM401      0.2828
    117  O12       18.7200    3.4860    0.9860 O.2   401  BLM401     -0.2667
    118  NH        18.8820    1.2460    0.4420 N.am  401  BLM401     -0.1898
    119  C13       19.0700    1.5000   -0.9900 C.3   401  BLM401      0.2058
    120  C30       17.8290    1.5170   -1.8170 C.2   401  BLM401      0.2641
    121  O30       17.8570    1.6930   -3.0230 O.2   401  BLM401     -0.2714
    122  C14       20.0190    0.4290   -1.6150 C.3   401  BLM401      0.1877
    123  C27       19.5770   -0.9920   -1.3700 C.ar  401  BLM401      0.1091
    124  OH1       21.2980    0.7190   -1.0750 O.3   401  BLM401     -0.3227
    125  NJ        19.2770   -1.4590   -0.1650 N.ar  401  BLM401     -0.2243
    126  C28       19.4150   -1.9760   -2.3010 C.ar  401  BLM401      0.1178
    127  C29       18.9460   -2.7250   -0.3390 C.ar  401  BLM401      0.1987
    128  NI        18.9650   -3.0020   -1.6250 N.ar  401  BLM401     -0.2211
    129  NK        16.6770    1.2780   -1.2090 N.am  401  BLM401     -0.2031
    130  C34       15.7950   -1.4110   -2.1770 C.3   401  BLM401      0.1102
    131  C36       15.1900   -2.7400   -1.7140 C.2   401  BLM401      0.2439
    132  O36       14.4740   -3.4900   -2.3950 O.2   401  BLM401     -0.2733
    133  OH2       13.6370   -0.2680   -2.2290 O.3   401  BLM401     -0.2208
    134  C31       15.4370    1.1790   -1.9260 C.3   401  BLM401      0.1261
    135  CB        14.4710    2.1870   -1.3340 C.3   401  BLM401      0.0261
    136  C33       14.9280   -0.2360   -1.6410 C.3   401  BLM401      0.1803
    137  CC        15.9280   -1.3970   -3.6950 C.3   401  BLM401      0.0123
    138  NL        15.4850   -3.1110   -0.4640 N.am  401  BLM401     -0.1950
    139  C37       15.0050   -4.3850    0.0510 C.3   401  BLM401      0.2028
    140  C40       13.4830   -4.3870    0.1980 C.2   401  BLM401      0.2638
    141  O40       12.8760   -3.3750    0.5670 O.2   401  BLM401     -0.2714
    142  C38       15.6430   -4.6350    1.4460 C.3   401  BLM401      0.1808
    143  OH3       17.0470   -4.6440    1.2510 O.3   401  BLM401     -0.2208
    144  CD        15.1180   -5.9350    2.0500 C.3   401  BLM401      0.0379
    145  NM        12.8600   -5.5180   -0.1230 N.am  401  BLM401     -0.2035
    146  C42       11.0970   -6.2660    1.2740 C.3   401  BLM401      0.0760
    147  C49        4.0890  -10.8930    0.7780 C.2   401  BLM401      0.2830
    148  O49        3.9190  -12.0110    0.2900 O.2   401  BLM401     -0.2667
    149  C43        9.6880   -6.6150    1.4860 C.ar  401  BLM401      0.0901
    150  C41       11.4080   -5.6820   -0.1180 C.3   401  BLM401      0.1220
    151  S43        8.5540   -5.6300    2.3510 S.2   401  BLM401     -0.0701
    152  C44        7.3590   -6.7910    2.0490 C.ar  401  BLM401      0.0577
    153  C45        7.9150   -7.8570    1.3300 C.ar  401  BLM401      0.1117
    154  NN         9.2560   -7.7300    1.0500 N.ar  401  BLM401     -0.2406
    155  C47        6.4150  -11.0960    0.0210 C.ar  401  BLM401      0.0607
    156  C48        5.4890  -10.3540    0.6760 C.ar  401  BLM401      0.1432
    157  NO         5.9260   -9.1840    1.2100 N.ar  401  BLM401     -0.2321
    158  C46        7.1630   -8.9890    0.9520 C.ar  401  BLM401      0.1290
    159  S46        7.9240  -10.2930    0.0710 S.2   401  BLM401     -0.0643
    160  NP         3.2610  -10.0760    1.4160 N.am  401  BLM401     -0.2003
    161  C50        1.8960  -10.4960    1.5590 C.3   401  BLM401      0.1164
    162  C51        1.2370   -9.7530    2.6820 C.3   401  BLM401      0.0343
    163  C52        1.2450  -10.6210    3.9580 C.3   401  BLM401      0.0500
    164  S53        1.2060   -9.5070    5.3820 S.3   401  BLM401     -0.1777
    165  C55        0.1920   -8.1370    4.8890 C.3   401  BLM401      0.0590
    166  C54        2.8400   -8.8170    5.4750 C.3   401  BLM401      0.0590
    167  O59       24.8440   -0.1810   -3.2490 O.3   401  BLM401     -0.2176
    168  O58       23.9500    0.2070    0.3140 O.3   401  BLM401     -0.2175
    169  C61       23.0920   -2.5380   -3.1240 C.3   401  BLM401      0.2142
    170  O61       22.5470   -3.6950   -2.5700 O.3   401  BLM401     -0.2176
    171  O56       23.1860    2.4660   -0.4920 O.3   401  BLM401     -0.3231
    172  C60       23.0630   -1.3200   -2.2260 C.3   401  BLM401      0.1835
    173  O62       22.3530   -0.2590   -2.8630 O.3   401  BLM401     -0.3257
    174  C63       22.2270    0.9930   -2.1570 C.3   401  BLM401      0.2665
    175  C57       23.5080    1.5780   -1.5560 C.3   401  BLM401      0.2066
    176  C58       24.4440    0.4630   -0.9820 C.3   401  BLM401      0.2166
    177  C59       24.4480   -0.7040   -1.9670 C.3   401  BLM401      0.2143
    178  C69       23.6070    4.5240    0.7610 C.3   401  BLM401      0.2502
    179  C68       22.1960    5.0560    1.0830 C.3   401  BLM401      0.2383
    180  C67       21.5230    5.6850   -0.1440 C.3   401  BLM401      0.2240
    181  C65       21.6820    4.8460   -1.4310 C.3   401  BLM401      0.1846
    182  O64       23.0230    4.4040   -1.6360 O.3   401  BLM401     -0.3255
    183  C64       23.7220    3.7770   -0.5780 C.3   401  BLM401      0.2707
    184  O68       22.1440    6.0220    2.1460 O.3   401  BLM401     -0.4306
    185  O67       20.1470    5.8210    0.1350 O.3   401  BLM401     -0.2164
    186  O69       24.4470    5.6620    0.7360 O.3   401  BLM401     -0.2137
    187  NQ        22.0400    6.7320    4.3200 N.am  401  BLM401     -0.0475
    188  C70       22.2110    5.6980    3.4410 C.2   401  BLM401      0.4411
    189  O70       22.4120    4.5940    3.8770 O.2   401  BLM401     -0.2228
    190  O66       20.9480    4.8050   -3.6950 O.3   401  BLM401     -0.2176
    191  C66       21.3560    5.6850   -2.6750 C.3   401  BLM401      0.2142
@<TRIPOS>BOND
     1     1     3   am
     2     2     6    1
     3     2     3    1
     4     2     7    1
     5     3     4    2
     6     5    18    1
     7     5     6    1
     8     8    10   am
     9     9    10    1
    10     9    18    1
    11    10    11    2
    12    12    19    1
    13    12    17   ar
    14    12    13   ar
    15    13    20    1
    16    13    14   ar
    17    14    15   ar
    18    14    21    1
    19    15    16   ar
    20    16    17   ar
    21    16    18    1
    22    21    22    2
    23    21    23   am
    24    23    24    1
    25    24    27    1
    26    24    25    1
    27    25    34   am
    28    25    26    2
    29    27    29    1
    30    27    28    1
    31    28    30    2
    32    28    31    1
    33    29    79    1
    34    30    32    1
    35    31    33    1
    36    32    33    2
    37    34    39    1
    38    35    41    1
    39    35    36    1
    40    35    42    1
    41    36    43   am
    42    36    37    2
    43    38    41    1
    44    39    41    1
    45    39    40    1
    46    43    44    1
    47    44    47    1
    48    44    45    1
    49    45    46    2
    50    45    50   am
    51    47    49    1
    52    47    48    1
    53    50    55    1
    54    51    54    1
    55    51    55    1
    56    52    65   am
    57    52    61    1
    58    52    53    2
    59    54    56   ar
    60    54    59   ar
    61    56    57   ar
    62    57    58   ar
    63    58    63    1
    64    58    59   ar
    65    60    61   ar
    66    60    64   ar
    67    61    62   ar
    68    62    63   ar
    69    63    64   ar
    70    65    66    1
    71    66    67    1
    72    67    68    1
    73    68    69    1
    74    69    71    1
    75    69    70    1
    76    72    82    1
    77    73    81    1
    78    74    77    1
    79    74    75    1
    80    76    88    1
    81    76    80    1
    82    77    82    1
    83    77    78    1
    84    78    79    1
    85    79    80    1
    86    80    81    1
    87    81    82    1
    88    83    84    1
    89    83    91    1
    90    83    88    1
    91    84    89    1
    92    84    85    1
    93    85    90    1
    94    85    86    1
    95    86    87    1
    96    86    96    1
    97    87    88    1
    98    89    93    1
    99    92    93   am
   100    93    94    2
   101    95    96    1
   102    97   102    1
   103    97    98    1
   104    97   101    1
   105    98    99    2
   106   100   101    1
   107   100   113    1
   108   103   105   am
   109   104   113    1
   110   104   105    1
   111   105   106    2
   112   107   108   ar
   113   107   112   ar
   114   107   114    1
   115   108   109   ar
   116   108   115    1
   117   109   116    1
   118   109   110   ar
   119   110   111   ar
   120   111   113    1
   121   111   112   ar
   122   116   118   am
   123   116   117    2
   124   118   119    1
   125   119   120    1
   126   119   122    1
   127   120   121    2
   128   120   129   am
   129   122   123    1
   130   122   124    1
   131   123   126   ar
   132   123   125   ar
   133   124   174    1
   134   125   127   ar
   135   126   128   ar
   136   127   128   ar
   137   129   134    1
   138   130   137    1
   139   130   131    1
   140   130   136    1
   141   131   132    2
   142   131   138   am
   143   133   136    1
   144   134   136    1
   145   134   135    1
   146   138   139    1
   147   139   140    1
   148   139   142    1
   149   140   145   am
   150   140   141    2
   151   142   143    1
   152   142   144    1
   153   145   150    1
   154   146   150    1
   155   146   149    1
   156   147   148    2
   157   147   156    1
   158   147   160   am
   159   149   154   ar
   160   149   151   ar
   161   151   152   ar
   162   152   153   ar
   163   153   158    1
   164   153   154   ar
   165   155   159   ar
   166   155   156   ar
   167   156   157   ar
   168   157   158   ar
   169   158   159   ar
   170   160   161    1
   171   161   162    1
   172   162   163    1
   173   163   164    1
   174   164   165    1
   175   164   166    1
   176   167   177    1
   177   168   176    1
   178   169   170    1
   179   169   172    1
   180   171   175    1
   181   171   183    1
   182   172   173    1
   183   172   177    1
   184   173   174    1
   185   174   175    1
   186   175   176    1
   187   176   177    1
   188   178   183    1
   189   178   186    1
   190   178   179    1
   191   179   180    1
   192   179   184    1
   193   180   181    1
   194   180   185    1
   195   181   191    1
   196   181   182    1
   197   182   183    1
   198   184   188    1
   199   187   188   am
   200   188   189    2
   201   190   191    1
