@<TRIPOS>MOLECULE
2cye_COA_4_ligand
   78    80     1     0     0
SMALL
NO_CHARGES


@<TRIPOS>ATOM
     1 N1A          8.6530    30.6490    46.8260 N.ar         1 COA603   0.0000
     2 C2A          9.0660    29.6100    47.5350 C.ar         1 COA603   0.0000
     3 N3A          8.8040    28.3710    47.1560 N.ar         1 COA603   0.0000
     4 C4A          8.1150    28.1290    46.0310 C.ar         1 COA603   0.0000
     5 C5A          7.6750    29.1960    45.2580 C.ar         1 COA603   0.0000
     6 C6A          7.9560    30.4850    45.6920 C.ar         1 COA603   0.0000
     7 N6A          7.5020    31.5300    45.0050 N.pl3        1 COA603   0.0000
     8 N7A          7.1060    28.7040    44.1630 N.2          1 COA603   1.0000
     9 C8A          7.1870    27.3780    44.2380 C.2          1 COA603   0.0000
    10 N9A          7.7840    27.0220    45.3740 N.pl3        1 COA603   0.0000
    11 C1B          7.6840    25.8020    45.8980 C.3          1 COA603   0.0000
    12 C2B          7.8120    25.2840    47.1850 C.2          1 COA603   0.0000
    13 O2B          8.0370    25.9840    48.3290 O.2          1 COA603   0.0000
    14 C3B          7.3900    23.8140    47.1260 C.3          1 COA603   0.0000
    15 O3B          8.5510    22.9890    47.0010 O.3          1 COA603   0.0000
    16 P3B          8.5610    21.4610    47.5160 P.3          1 COA603   0.0000
    17 O7A          8.2170    20.5540    46.2320 O.co2        1 COA603   0.0000
    18 O8A         10.0920    21.1690    47.9170 O.co2        1 COA603  -1.0000
    19 O9A          7.6270    21.2230    48.6400 O.co2        1 COA603  -1.0000
    20 C4B          6.6060    23.9520    45.8230 C.3          1 COA603   0.0000
    21 O4B          7.5010    24.7570    45.0480 O.3          1 COA603   0.0000
    22 C5B          6.2060    22.7380    44.9890 C.3          1 COA603   0.0000
    23 O5B          5.5400    23.2670    43.8390 O.3          1 COA603   0.0000
    24 P1A          3.9640    23.6030    43.8690 P.3          1 COA603   0.0000
    25 O1A          3.2960    22.2920    44.0250 O.co2        1 COA603   0.0000
    26 O2A          3.6690    24.6660    44.8560 O.co2        1 COA603  -1.0000
    27 O3A          3.7030    24.1370    42.3690 O.3          1 COA603   0.0000
    28 P2A          3.2540    25.6400    41.9960 P.3          1 COA603   0.0000
    29 O4A          1.8260    25.5870    41.6110 O.co2        1 COA603   0.0000
    30 O5A          3.6630    26.5740    43.0700 O.co2        1 COA603  -1.0000
    31 O6A          4.1110    25.9300    40.6640 O.3          1 COA603   0.0000
    32 CBP          6.1180    26.5710    39.4100 C.3          1 COA603   0.0000
    33 CCP          5.5050    26.2250    40.7690 C.3          1 COA603   0.0000
    34 CDP          6.1090    25.3290    38.5160 C.3          1 COA603   0.0000
    35 CEP          7.5620    27.0250    39.6350 C.3          1 COA603   0.0000
    36 CAP          5.3150    27.6910    38.7410 C.3          1 COA603   0.0000
    37 OAP          5.0210    28.7320    39.6770 O.3          1 COA603   0.0000
    38 C9P          6.0610    28.2610    37.5310 C.2          1 COA603   0.0000
    39 O9P          5.4730    27.7580    36.3290 O.2          1 COA603   0.0000
    40 N8P          6.0010    29.7290    37.5550 N.am         1 COA603   0.0000
    41 C7P          6.7630    30.3140    36.4410 C.3          1 COA603   0.0000
    42 C6P          8.2680    30.0830    36.6030 C.3          1 COA603   0.0000
    43 C5P          9.0400    30.9320    35.5910 C.2          1 COA603   0.0000
    44 O5P          8.7230    30.5150    34.2610 O.2          1 COA603   0.0000
    45 N4P         10.4850    30.8030    35.8260 N.am         1 COA603   0.0000
    46 C3P         11.2120    31.7850    35.0080 C.3          1 COA603   0.0000
    47 C2P         11.8580    31.0770    33.8140 C.3          1 COA603   0.0000
    48 S1P         13.0880    29.8190    34.3180 S.3          1 COA603  -1.0000
    49 H2A          9.5868    29.7657    48.3744 H            1 COA603   0.0000
    50 H6A1         6.9842    31.3871    44.1615 H            1 COA603   0.0000
    51 H6A2         7.6786    32.4583    45.3321 H            1 COA603   0.0000
    52 H8A          6.8494    26.7424    43.5437 H            1 COA603   0.0000
    53 H1B          6.6966    25.9088    46.0150 H            1 COA603   0.0000
    54 H3B          6.8110    23.5489    47.8970 H            1 COA603   0.0000
    55 H4B          5.7831    24.4891    46.0084 H            1 COA603   0.0000
    56 H5B1         5.5900    22.1452    45.5078 H            1 COA603   0.0000
    57 H5B2         7.0162    22.2193    44.7159 H            1 COA603   0.0000
    58 HCP1         5.9773    25.4269    41.1431 H            1 COA603   0.0000
    59 HCP2         5.6254    27.0029    41.3857 H            1 COA603   0.0000
    60 HDP1         6.5095    25.5546    37.6279 H            1 COA603   0.0000
    61 HDP2         6.6442    24.6033    38.9483 H            1 COA603   0.0000
    62 HDP3         5.1675    25.0175    38.3876 H            1 COA603   0.0000
    63 HEP1         7.9796    27.2558    38.7562 H            1 COA603   0.0000
    64 HEP2         7.5698    27.8293    40.2292 H            1 COA603   0.0000
    65 HEP3         8.0802    26.2866    40.0666 H            1 COA603   0.0000
    66 HAP          4.4495    27.3058    38.4208 H            1 COA603   0.0000
    67 H19          5.7551    29.4108    39.6620 H            1 COA603   0.0000
    68 H8P          5.5056    30.2621    38.2408 H            1 COA603   0.0000
    69 H7P1         6.5875    31.2980    36.4095 H            1 COA603   0.0000
    70 H7P2         6.4607    29.8939    35.5854 H            1 COA603   0.0000
    71 H6P1         8.4731    29.1164    36.4491 H            1 COA603   0.0000
    72 H6P2         8.5445    30.3391    37.5293 H            1 COA603   0.0000
    73 H4P         10.9100    30.1460    36.4487 H            1 COA603   0.0000
    74 H3P1        11.9222    32.2196    35.5619 H            1 COA603   0.0000
    75 H3P2        10.5744    32.4809    34.6777 H            1 COA603   0.0000
    76 H2P1        12.3149    31.7612    33.2455 H            1 COA603   0.0000
    77 H2P2        11.1403    30.6274    33.2823 H            1 COA603   0.0000
    78 H7A          6.6936    29.2319    43.4206 H            1 COA603   0.0000
@<TRIPOS>BOND
     1    1    2      ar
     2    1    6      ar
     3    2    3      ar
     4    3    4      ar
     5    4    5      ar
     6    4   10       1
     7    5    6      ar
     8    5    8       1
     9    6    7       1
    10    8    9       2
    11    9   10       1
    12   10   11       1
    13   11   12       1
    14   11   21       1
    15   12   13       2
    16   12   14       1
    17   14   15       1
    18   14   20       1
    19   15   16       1
    20   16   17      ar
    21   16   18      ar
    22   16   19      ar
    23   20   21       1
    24   20   22       1
    25   22   23       1
    26   23   24       1
    27   24   25      ar
    28   24   26      ar
    29   24   27       1
    30   27   28       1
    31   28   29      ar
    32   28   30      ar
    33   28   31       1
    34   31   33       1
    35   32   33       1
    36   32   34       1
    37   32   35       1
    38   32   36       1
    39   36   37       1
    40   36   38       1
    41   38   39       2
    42   38   40      am
    43   40   41       1
    44   41   42       1
    45   42   43       1
    46   43   44       2
    47   43   45      am
    48   45   46       1
    49   46   47       1
    50   47   48       1
    51    2   49       1
    52    7   50       1
    53    7   51       1
    54    9   52       1
    55   11   53       1
    56   14   54       1
    57    8   78       1
    58   47   77       1
    59   20   55       1
    60   22   56       1
    61   22   57       1
    62   47   76       1
    63   46   75       1
    64   33   58       1
    65   33   59       1
    66   34   60       1
    67   34   61       1
    68   34   62       1
    69   35   63       1
    70   35   64       1
    71   35   65       1
    72   36   66       1
    73   37   67       1
    74   40   68       1
    75   41   69       1
    76   41   70       1
    77   42   71       1
    78   42   72       1
    79   45   73       1
    80   46   74       1
@<TRIPOS>SUBSTRUCTURE
     1 COA603      1 GROUP             4 C     COA     0 **** COA C 603
