@<TRIPOS>MOLECULE
4hut_ATP_2_ligand
   43    45     1     0     0
SMALL
NO_CHARGES


@<TRIPOS>ATOM
     1 PG         -22.0930    -5.3350    32.8950 P.3          1 ATP202   0.0000
     2 O1G        -22.6160    -4.2540    33.7470 O.co2        1 ATP202   0.0000
     3 O2G        -22.4650    -5.4440    31.4520 O.co2        1 ATP202  -1.0000
     4 O3G        -20.5720    -5.3750    33.0430 O.co2        1 ATP202  -1.0000
     5 PB         -24.1560    -7.2590    33.4560 P.3          1 ATP202   0.0000
     6 O1B        -24.2610    -8.3720    32.4230 O.co2        1 ATP202   0.0000
     7 O2B        -25.1830    -6.1160    33.4490 O.co2        1 ATP202  -1.0000
     8 O3B        -22.5980    -6.7100    33.5960 O.3          1 ATP202   0.0000
     9 PA         -24.8290    -7.6870    36.2490 P.3          1 ATP202   0.0000
    10 O1A        -24.8150    -8.8540    37.1110 O.co2        1 ATP202   0.0000
    11 O2A        -26.0920    -6.8320    36.0640 O.co2        1 ATP202  -1.0000
    12 O3A        -24.2390    -8.1070    34.8080 O.3          1 ATP202   0.0000
    13 O5'        -23.7080    -6.7060    37.0040 O.3          1 ATP202   0.0000
    14 C5'        -23.1090    -6.9060    38.3900 C.3          1 ATP202   0.0000
    15 C4'        -21.5160    -6.9110    38.5360 C.3          1 ATP202   0.0000
    16 O4'        -20.9040    -8.2110    38.3440 O.3          1 ATP202   0.0000
    17 C3'        -20.8390    -6.0820    37.4190 C.3          1 ATP202   0.0000
    18 O3'        -19.5680    -5.5770    37.8280 O.3          1 ATP202   0.0000
    19 C2'        -20.6790    -7.0640    36.2340 C.3          1 ATP202   0.0000
    20 O2'        -19.6790    -6.8200    35.1850 O.3          1 ATP202   0.0000
    21 C1'        -20.2220    -8.2760    37.0570 C.3          1 ATP202   0.0000
    22 N9         -20.6820    -9.5680    36.5030 N.pl3        1 ATP202   0.0000
    23 C8         -21.6910    -9.8090    35.6030 C.2          1 ATP202   0.0000
    24 N7         -21.8440   -11.1610    35.4020 N.2          1 ATP202   0.0000
    25 C5         -20.9340   -11.7750    36.2420 C.ar         1 ATP202   0.0000
    26 C6         -20.5740   -13.1920    36.5520 C.ar         1 ATP202   0.0000
    27 N6         -21.2100   -14.2020    35.8530 N.pl3        1 ATP202   0.0000
    28 N1         -19.5510   -13.3800    37.4820 N.ar         1 ATP202   0.0000
    29 C2         -18.8940   -12.3580    38.1150 C.ar         1 ATP202   0.0000
    30 N3         -19.1690   -11.0150    37.8480 N.ar         1 ATP202   0.0000
    31 C4         -20.1740   -10.7200    36.9600 C.ar         1 ATP202   0.0000
    32 H5'1       -23.4400    -7.7858    38.7311 H            1 ATP202   0.0000
    33 H5'2       -23.4570    -6.1707    38.9715 H            1 ATP202   0.0000
    34 H4'        -21.2582    -6.5457    39.4305 H            1 ATP202   0.0000
    35 H3'        -21.4343    -5.3240    37.1522 H            1 ATP202   0.0000
    36 H5         -19.3856    -4.7133    37.3581 H            1 ATP202   0.0000
    37 H2'        -21.5705    -7.2484    35.8201 H            1 ATP202   0.0000
    38 H7         -20.0888    -6.2738    34.4544 H            1 ATP202   0.0000
    39 H1'        -19.2293    -8.2721    37.1779 H            1 ATP202   0.0000
    40 H9         -22.2378    -9.1008    35.1564 H            1 ATP202   0.0000
    41 H10        -20.9866   -15.1582    36.0420 H            1 ATP202   0.0000
    42 H11        -21.8932   -13.9760    35.1586 H            1 ATP202   0.0000
    43 H12        -18.1928   -12.5815    38.7921 H            1 ATP202   0.0000
@<TRIPOS>BOND
     1    1    2      ar
     2    1    3      ar
     3    1    4      ar
     4    1    8       1
     5    5    6      ar
     6    5    7      ar
     7    5    8       1
     8    5   12       1
     9    9   10      ar
    10    9   11      ar
    11    9   12       1
    12    9   13       1
    13   13   14       1
    14   14   15       1
    15   15   16       1
    16   15   17       1
    17   16   21       1
    18   17   18       1
    19   17   19       1
    20   19   20       1
    21   19   21       1
    22   21   22       1
    23   22   23       1
    24   22   31       1
    25   23   24       2
    26   24   25       1
    27   25   26      ar
    28   25   31      ar
    29   26   27       1
    30   26   28      ar
    31   28   29      ar
    32   29   30      ar
    33   30   31      ar
    34   29   43       1
    35   27   42       1
    36   27   41       1
    37   23   40       1
    38   14   32       1
    39   14   33       1
    40   15   34       1
    41   17   35       1
    42   18   36       1
    43   19   37       1
    44   20   38       1
    45   21   39       1
@<TRIPOS>SUBSTRUCTURE
     1 ATP202      1 GROUP             4 B     ATP     0 **** ATP B 202
