@<TRIPOS>MOLECULE
1s9d_AFB_1_ligand
   44    45     1     0     0
SMALL
NO_CHARGES


@<TRIPOS>ATOM
     1 OC7         28.6040     9.4920    25.9500 O.3          1 AFB403   0.0000
     2 C7          28.3140    10.1080    27.3490 C.3          1 AFB403   0.0000
     3 C8          26.8220     9.8440    27.5380 C.3          1 AFB403   0.0000
     4 C6          28.9300     9.1740    28.2920 C.3          1 AFB403   0.0000
     5 C5          28.0640     9.4490    29.5860 C.3          1 AFB403   0.0000
     6 C9          26.8360    10.2210    29.0770 C.3          1 AFB403   0.0000
     7 C10         25.4980     9.7260    29.7630 C.2          1 AFB403   0.0000
     8 C11         24.5890    10.5920    30.3680 C.2          1 AFB403   0.0000
     9 C12         23.4900     9.9400    30.9870 C.3          1 AFB403   0.0000
    10 C13         23.6040    10.1210    32.5490 C.3          1 AFB403   0.0000
    11 C14         23.5580    11.6720    32.8890 C.3          1 AFB403   0.0000
    12 C15         24.7150    11.9680    33.8780 C.3          1 AFB403   0.0000
    13 C16         24.6590    13.4860    34.4880 C.3          1 AFB403   0.0000
    14 O16         26.0710    11.7200    33.2330 O.3          1 AFB403   0.0000
    15 C1          27.1230    11.1940    33.8750 C.2          1 AFB403   0.0000
    16 OC1         27.0930    11.2200    35.1580 O.2          1 AFB403   0.0000
    17 C2          28.2040    10.6830    33.0960 C.2          1 AFB403   0.0000
    18 C3          27.9230    10.8600    31.6990 C.2          1 AFB403   0.0000
    19 C4          28.8630    10.3980    30.4750 C.3          1 AFB403   0.0000
    20 OC4         30.0290     9.7530    31.0300 O.3          1 AFB403   0.0000
    21 HC7         27.9814     8.7266    25.7872 H            1 AFB403   0.0000
    22 H2          28.5917    11.0626    27.4567 H            1 AFB403   0.0000
    23 H3          26.5661     8.8923    27.3682 H            1 AFB403   0.0000
    24 H4          26.2429    10.4478    26.9901 H            1 AFB403   0.0000
    25 H5          29.8955     9.3861    28.4430 H            1 AFB403   0.0000
    26 H6          28.8410     8.2269    27.9836 H            1 AFB403   0.0000
    27 H7          27.8123     8.6056    30.0607 H            1 AFB403   0.0000
    28 H8          26.9573    11.2058    29.2016 H            1 AFB403   0.0000
    29 H9          25.2957     8.7467    29.7622 H            1 AFB403   0.0000
    30 H10         24.7010    11.5857    30.3663 H            1 AFB403   0.0000
    31 H11         23.5057     8.9663    30.7597 H            1 AFB403   0.0000
    32 H12         22.6343    10.3440    30.6637 H            1 AFB403   0.0000
    33 H13         24.4673     9.7319    32.8704 H            1 AFB403   0.0000
    34 H14         22.8411     9.6557    32.9979 H            1 AFB403   0.0000
    35 H15         22.6812    11.9031    33.3106 H            1 AFB403   0.0000
    36 H16         23.6777    12.2082    32.0534 H            1 AFB403   0.0000
    37 H17         24.6256    11.3322    34.6446 H            1 AFB403   0.0000
    38 H18         25.4249    13.6211    35.1166 H            1 AFB403   0.0000
    39 H19         24.7202    14.1479    33.7409 H            1 AFB403   0.0000
    40 H20         23.7977    13.6163    34.9791 H            1 AFB403   0.0000
    41 H21         29.0328    10.2645    33.4673 H            1 AFB403   0.0000
    42 H22         27.0629    11.3126    31.4638 H            1 AFB403   0.0000
    43 H23         29.1424    11.1989    29.9454 H            1 AFB403   0.0000
    44 HC4         30.2430    10.1586    31.9186 H            1 AFB403   0.0000
@<TRIPOS>BOND
     1    1    2       1
     2    2    3       1
     3    2    4       1
     4    3    6       1
     5    4    5       1
     6    5    6       1
     7    5   19       1
     8    6    7       1
     9    7    8       2
    10    8    9       1
    11    9   10       1
    12   10   11       1
    13   11   12       1
    14   12   13       1
    15   12   14       1
    16   14   15       1
    17   15   16       2
    18   15   17       1
    19   17   18       2
    20   18   19       1
    21   19   20       1
    22    1   21       1
    23    2   22       1
    24    3   23       1
    25    3   24       1
    26    4   25       1
    27    4   26       1
    28    5   27       1
    29    6   28       1
    30    7   29       1
    31    8   30       1
    32    9   31       1
    33    9   32       1
    34   10   33       1
    35   10   34       1
    36   11   35       1
    37   11   36       1
    38   12   37       1
    39   13   38       1
    40   13   39       1
    41   13   40       1
    42   17   41       1
    43   18   42       1
    44   19   43       1
    45   20   44       1
@<TRIPOS>SUBSTRUCTURE
     1 AFB403      1 GROUP             4 A     AFB     0 **** AFB A 403
