@<TRIPOS>MOLECULE
3zy5_GFB_1_ligand
   61    64     1     0     0
SMALL
NO_CHARGES


@<TRIPOS>ATOM
     1 O1P        -12.8840   -27.0170    16.5360 O.co2        1 GFB1386   0.0000
     2 P          -11.3820   -26.8570    16.4820 P.3          1 GFB1386   0.0000
     3 O3P        -10.8290   -26.2130    15.2370 O.co2        1 GFB1386  -1.0000
     4 O2P        -10.9670   -26.0100    17.8130 O.3          1 GFB1386   0.0000
     5 O5'        -10.6930   -28.2680    16.7470 O.3          1 GFB1386   0.0000
     6 P1          -9.5570   -25.8240    18.5830 P.3          1 GFB1386   0.0000
     7 C5'        -11.1800   -29.0320    17.8500 C.3          1 GFB1386   0.0000
     8 C4'        -12.0310   -30.1440    17.2410 C.3          1 GFB1386   0.0000
     9 O4'        -11.9420   -31.3090    18.0720 O.3          1 GFB1386   0.0000
    10 C3'        -13.5070   -29.7880    17.1580 C.3          1 GFB1386   0.0000
    11 C1'        -13.2460   -31.7990    18.3930 C.3          1 GFB1386   0.0000
    12 O3'        -13.8750   -29.1670    15.9100 O.3          1 GFB1386   0.0000
    13 C2'        -14.1770   -31.1320    17.3930 C.3          1 GFB1386   0.0000
    14 O2'        -14.2360   -31.9100    16.1920 O.3          1 GFB1386   0.0000
    15 N9         -13.6950   -31.3030    19.7190 N.pl3        1 GFB1386   0.0000
    16 C8         -13.1130   -30.4130    20.5470 C.2          1 GFB1386   0.0000
    17 C4         -14.8600   -31.6670    20.2490 C.2          1 GFB1386   0.0000
    18 N7         -13.9190   -30.2250    21.6200 N.2          1 GFB1386   0.0000
    19 C5         -15.0050   -31.0100    21.4590 C.2          1 GFB1386   0.0000
    20 C6         -16.1530   -31.2560    22.1990 C.2          1 GFB1386   0.0000
    21 O6         -16.3030   -30.6720    23.2960 O.2          1 GFB1386   0.0000
    22 N1         -17.0860   -32.1070    21.7070 N.pl3        1 GFB1386   0.0000
    23 C2         -16.9070   -32.7240    20.5190 C.2          1 GFB1386   0.0000
    24 N2         -17.7980   -33.5920    19.9970 N.pl3        1 GFB1386   0.0000
    25 N3         -15.8090   -32.5100    19.7930 N.2          1 GFB1386   0.0000
    26 C1          -7.3460   -26.1080    17.1350 C.3          1 GFB1386   0.0000
    27 C2A         -7.5940   -26.0920    15.6150 C.3          1 GFB1386   0.0000
    28 O1          -8.5010   -26.6730    17.7310 O.3          1 GFB1386   0.0000
    29 O5          -6.3070   -27.0130    17.4950 O.3          1 GFB1386   0.0000
    30 C3          -6.3260   -25.8400    14.8040 C.3          1 GFB1386   0.0000
    31 O2          -8.5360   -25.0690    15.3040 O.3          1 GFB1386   0.0000
    32 C4A         -5.2090   -26.7670    15.2890 C.3          1 GFB1386   0.0000
    33 O3          -6.6000   -26.0380    13.3910 O.3          1 GFB1386   0.0000
    34 C5A         -5.0560   -26.8000    16.8160 C.3          1 GFB1386   0.0000
    35 O4          -5.4950   -28.0970    14.8380 O.3          1 GFB1386   0.0000
    36 C6A         -4.1130   -27.9230    17.2270 C.3          1 GFB1386   0.0000
    37 O1X         -9.2630   -24.3390    18.5820 O.co2        1 GFB1386   0.0000
    38 O2X         -9.6500   -26.4880    19.9290 O.co2        1 GFB1386  -1.0000
    39 H5'1       -11.7352   -28.4588    18.4527 H            1 GFB1386   0.0000
    40 H5'2       -10.4181   -29.4205    18.3682 H            1 GFB1386   0.0000
    41 H4'        -11.6895   -30.3611    16.3265 H            1 GFB1386   0.0000
    42 H3'        -13.7376   -29.1714    17.9107 H            1 GFB1386   0.0000
    43 H1'        -13.2922   -32.7962    18.3349 H            1 GFB1386   0.0000
    44 H6         -13.7762   -28.1751    15.9894 H            1 GFB1386   0.0000
    45 H2'        -15.0897   -31.0108    17.7832 H            1 GFB1386   0.0000
    46 H8         -14.2945   -31.2997    15.4020 H            1 GFB1386   0.0000
    47 H9         -12.2319   -29.9653    20.3947 H            1 GFB1386   0.0000
    48 H10        -17.6176   -34.0223    19.1125 H            1 GFB1386   0.0000
    49 H11        -18.6389   -33.8051    20.4945 H            1 GFB1386   0.0000
    50 H12         -7.1670   -25.1887    17.4854 H            1 GFB1386   0.0000
    51 H2A         -7.9780   -26.9746    15.3436 H            1 GFB1386   0.0000
    52 H14         -6.0392   -24.8924    14.9447 H            1 GFB1386   0.0000
    53 H15         -9.4615   -25.4460    15.3398 H            1 GFB1386   0.0000
    54 H4A         -4.3443   -26.4686    14.8849 H            1 GFB1386   0.0000
    55 H17         -7.3221   -26.7215    13.2841 H            1 GFB1386   0.0000
    56 H5A         -4.6699   -25.9288    17.1193 H            1 GFB1386   0.0000
    57 H19         -6.3498   -28.0964    14.3190 H            1 GFB1386   0.0000
    58 H6A1        -3.2318   -27.8024    16.7699 H            1 GFB1386   0.0000
    59 H6A2        -3.9803   -27.9009    18.2179 H            1 GFB1386   0.0000
    60 H6A3        -4.5077   -28.8031    16.9631 H            1 GFB1386   0.0000
    61 H23        -17.9195   -32.2807    22.2315 H            1 GFB1386   0.0000
@<TRIPOS>BOND
     1    1    2      ar
     2    2    3      ar
     3    2    4       1
     4    2    5       1
     5    4    6       1
     6    5    7       1
     7    6   28       1
     8    6   37      ar
     9    6   38      ar
    10    7    8       1
    11    8    9       1
    12    8   10       1
    13    9   11       1
    14   10   12       1
    15   10   13       1
    16   11   13       1
    17   11   15       1
    18   13   14       1
    19   15   16       1
    20   15   17       1
    21   16   18       2
    22   17   19       2
    23   17   25       1
    24   18   19       1
    25   19   20       1
    26   20   21       2
    27   20   22       1
    28   22   23       1
    29   23   24       1
    30   23   25       2
    31   26   27       1
    32   26   28       1
    33   26   29       1
    34   27   30       1
    35   27   31       1
    36   29   34       1
    37   30   32       1
    38   30   33       1
    39   32   34       1
    40   32   35       1
    41   34   36       1
    42   36   60       1
    43    7   39       1
    44    7   40       1
    45    8   41       1
    46   10   42       1
    47   11   43       1
    48   12   44       1
    49   13   45       1
    50   14   46       1
    51   16   47       1
    52   24   48       1
    53   24   49       1
    54   22   61       1
    55   26   50       1
    56   27   51       1
    57   30   52       1
    58   31   53       1
    59   32   54       1
    60   33   55       1
    61   34   56       1
    62   35   57       1
    63   36   58       1
    64   36   59       1
@<TRIPOS>SUBSTRUCTURE
     1 GFB1386     1 GROUP             4 A     GFB     0 **** GFB A1386
