@<TRIPOS>MOLECULE
2xik_J60_1_ligand
   57    59     1     0     0
SMALL
NO_CHARGES


@<TRIPOS>ATOM
     1 CBA         -3.3370    -1.1200   -22.3290 C.3          1 J601294   0.0000
     2 CAZ         -3.9640    -2.5150   -22.2640 C.3          1 J601294   0.0000
     3 NAX         -2.8950    -3.5250   -22.2290 N.4          1 J601294   1.0000
     4 CAY         -2.5480    -3.8830   -20.8470 C.3          1 J601294   0.0000
     5 CBB         -1.3810    -3.0070   -20.3850 C.3          1 J601294   0.0000
     6 CAW         -3.1590    -4.7150   -23.0610 C.3          1 J601294   0.0000
     7 CAV         -4.5980    -5.2430   -22.9200 C.3          1 J601294   0.0000
     8 NAU         -4.5840    -6.6580   -22.4850 N.am         1 J601294   0.0000
     9 CAS         -4.1230    -7.6570   -23.2480 C.2          1 J601294   0.0000
    10 OAT         -3.6530    -7.4910   -24.3740 O.2          1 J601294   0.0000
    11 CAN         -4.1500    -9.0740   -22.6380 C.2          1 J601294   0.0000
    12 CAM         -4.3000    -9.4620   -21.3120 C.2          1 J601294   0.0000
    13 CAQ         -4.5910    -8.5420   -20.1110 C.3          1 J601294   0.0000
    14 CAO         -3.8870   -10.2420   -23.3380 C.2          1 J601294   0.0000
    15 CAR         -3.6440   -10.3540   -24.8470 C.3          1 J601294   0.0000
    16 NAP         -3.9210   -11.2820   -22.5030 N.pl3        1 J601294   0.0000
    17 CAL         -4.1680   -10.8570   -21.2580 C.2          1 J601294   0.0000
    18 CAK         -4.2590   -11.5250   -20.0310 C.2          1 J601294   0.0000
    19 CAG         -4.2190   -12.9120   -19.8200 C.2          1 J601294   0.0000
    20 CAE         -4.3670   -13.5000   -18.5650 C.ar         1 J601294   0.0000
    21 CAD         -4.4940   -12.9930   -17.2630 C.ar         1 J601294   0.0000
    22 CAA         -4.6130   -13.8760   -16.1770 C.ar         1 J601294   0.0000
    23 CL          -4.7610   -13.2880   -14.5480 Cl           1 J601294   0.0000
    24 CAB         -4.6290   -15.2510   -16.4060 C.ar         1 J601294   0.0000
    25 CAC         -4.5350   -15.7510   -17.7050 C.ar         1 J601294   0.0000
    26 CAF         -4.4050   -14.8830   -18.7870 C.ar         1 J601294   0.0000
    27 NAH         -4.3140   -15.1200   -20.0990 N.am         1 J601294   0.0000
    28 CAI         -4.1910   -13.9580   -20.7450 C.2          1 J601294   0.0000
    29 OAJ         -4.0020   -13.8830   -21.9580 O.2          1 J601294   0.0000
    30 HBA1        -4.0605    -0.4301   -22.3530 H            1 J601294   0.0000
    31 HBA2        -2.7640    -0.9742   -21.5225 H            1 J601294   0.0000
    32 HBA3        -2.7769    -1.0444   -23.1540 H            1 J601294   0.0000
    33 HAZ1        -4.5368    -2.6621   -23.0704 H            1 J601294   0.0000
    34 HAZ2        -4.5238    -2.5919   -21.4390 H            1 J601294   0.0000
    35 HAY1        -2.2812    -4.8459   -20.8067 H            1 J601294   0.0000
    36 HAY2        -3.3376    -3.7308   -20.2526 H            1 J601294   0.0000
    37 HBB1        -1.1381    -3.2443   -19.4444 H            1 J601294   0.0000
    38 HBB2        -0.5930    -3.1598   -20.9814 H            1 J601294   0.0000
    39 HBB3        -1.6495    -2.0446   -20.4273 H            1 J601294   0.0000
    40 HAW1        -2.5259    -5.4400   -22.7896 H            1 J601294   0.0000
    41 HAW2        -3.0003    -4.4753   -24.0188 H            1 J601294   0.0000
    42 HAV1        -5.0632    -5.1735   -23.8025 H            1 J601294   0.0000
    43 HAV2        -5.0862    -4.6939   -22.2417 H            1 J601294   0.0000
    44 HAU         -4.9366    -6.8788   -21.5756 H            1 J601294   0.0000
    45 HAQ1        -4.6482    -9.0907   -19.2769 H            1 J601294   0.0000
    46 HAQ2        -3.8551    -7.8712   -20.0189 H            1 J601294   0.0000
    47 HAQ3        -5.4586    -8.0669   -20.2576 H            1 J601294   0.0000
    48 HAR1        -3.4788   -11.3104   -25.0880 H            1 J601294   0.0000
    49 HAR2        -4.4476   -10.0201   -25.3397 H            1 J601294   0.0000
    50 HAR3        -2.8470    -9.8046   -25.0980 H            1 J601294   0.0000
    51 HAP         -3.7826   -12.2364   -22.7677 H            1 J601294   0.0000
    52 HAK         -4.3637   -10.9526   -19.2178 H            1 J601294   0.0000
    53 HAD         -4.4998   -12.0050   -17.1084 H            1 J601294   0.0000
    54 HAB         -4.7083   -15.8826   -15.6347 H            1 J601294   0.0000
    55 HAC         -4.5611   -16.7385   -17.8605 H            1 J601294   0.0000
    56 HAH         -4.3347   -16.0230   -20.5282 H            1 J601294   0.0000
    57 HAX         -2.0838    -3.0872   -22.6166 H            1 J601294   0.0000
@<TRIPOS>BOND
     1    1    2       1
     2    2    3       1
     3    3    4       1
     4    3    6       1
     5    4    5       1
     6    6    7       1
     7    7    8       1
     8    8    9      am
     9    9   10       2
    10    9   11       1
    11   11   12       1
    12   11   14       2
    13   12   13       1
    14   12   17       2
    15   14   15       1
    16   14   16       1
    17   16   17       1
    18   17   18       1
    19   18   19       2
    20   19   20       1
    21   19   28       1
    22   20   21      ar
    23   20   26      ar
    24   21   22      ar
    25   22   23       1
    26   22   24      ar
    27   24   25      ar
    28   25   26      ar
    29   26   27       1
    30   27   28      am
    31   28   29       2
    32    1   30       1
    33    1   31       1
    34    1   32       1
    35    2   33       1
    36    2   34       1
    37    4   35       1
    38    4   36       1
    39    5   37       1
    40    5   38       1
    41    5   39       1
    42    6   40       1
    43    6   41       1
    44    7   42       1
    45    7   43       1
    46    8   44       1
    47   13   45       1
    48   13   46       1
    49   13   47       1
    50   15   48       1
    51   15   49       1
    52   15   50       1
    53   16   51       1
    54   18   52       1
    55   21   53       1
    56   24   54       1
    57   25   55       1
    58   27   56       1
    59    3   57       1
@<TRIPOS>SUBSTRUCTURE
     1 J601294     1 GROUP             4 A     J60     0 **** J60 A1294
