@<TRIPOS>MOLECULE
1rx0_FAD_4_ligand
   84    89     1     0     0
SMALL
NO_CHARGES


@<TRIPOS>ATOM
     1 PA          37.2530   -48.7990    67.8270 P.3          1 FAD399   0.0000
     2 O1A         38.0900   -50.0180    67.7500 O.co2        1 FAD399   0.0000
     3 O2A         37.8120   -47.6060    68.5030 O.co2        1 FAD399  -1.0000
     4 O5B         36.8670   -48.3960    66.3380 O.3          1 FAD399   0.0000
     5 C5B         36.0660   -47.2550    66.0120 C.3          1 FAD399   0.0000
     6 C4B         35.8580   -47.1920    64.4890 C.3          1 FAD399   0.0000
     7 O4B         37.1580   -47.2380    63.8280 O.3          1 FAD399   0.0000
     8 C3B         35.0840   -48.3550    63.8860 C.3          1 FAD399   0.0000
     9 O3B         34.2710   -47.9000    62.8030 O.3          1 FAD399   0.0000
    10 C2B         36.1750   -49.2990    63.4300 C.3          1 FAD399   0.0000
    11 O2B         35.7300   -50.2260    62.4780 O.3          1 FAD399   0.0000
    12 C1B         37.2080   -48.3180    62.9140 C.3          1 FAD399   0.0000
    13 N9A         38.5770   -48.8160    62.9160 N.pl3        1 FAD399   0.0000
    14 C8A         39.3520   -49.3180    63.9330 C.2          1 FAD399   0.0000
    15 N7A         40.5580   -49.6640    63.5740 N.2          1 FAD399   0.0000
    16 C5A         40.5970   -49.3740    62.2240 C.ar         1 FAD399   0.0000
    17 C6A         41.6160   -49.5050    61.2350 C.ar         1 FAD399   0.0000
    18 N6A         42.8400   -49.9870    61.5000 N.pl3        1 FAD399   0.0000
    19 N1A         41.3190   -49.1110    59.9450 N.ar         1 FAD399   0.0000
    20 C2A         40.0840   -48.6210    59.6700 C.ar         1 FAD399   0.0000
    21 N3A         39.0510   -48.4540    60.5240 N.ar         1 FAD399   0.0000
    22 C4A         39.3770   -48.8510    61.7950 C.ar         1 FAD399   0.0000
    23 N1          33.2250   -57.0050    73.7690 N.2          1 FAD399   0.0000
    24 C2          33.5240   -58.1520    74.4850 C.2          1 FAD399   0.0000
    25 O2          34.6860   -58.4540    74.6880 O.2          1 FAD399   0.0000
    26 N3          32.4870   -58.9450    74.9800 N.pl3        1 FAD399   0.0000
    27 C4          31.1410   -58.6290    74.7770 C.2          1 FAD399   0.0000
    28 O4          30.2840   -59.3420    75.2350 O.2          1 FAD399   0.0000
    29 C4X         30.8420   -57.4190    74.0180 C.2          1 FAD399   0.0000
    30 N5          29.4920   -57.0290    73.8150 N.2          1 FAD399   0.0000
    31 C5X         29.2110   -55.8520    73.1950 C.ar         1 FAD399   0.0000
    32 C6          27.8530   -55.4700    73.0810 C.ar         1 FAD399   0.0000
    33 C7          27.5070   -54.2230    72.4750 C.ar         1 FAD399   0.0000
    34 C7M         26.0330   -53.8350    72.3810 C.3          1 FAD399   0.0000
    35 C8          28.5480   -53.3490    71.9700 C.ar         1 FAD399   0.0000
    36 C8M         28.2140   -52.0090    71.3300 C.3          1 FAD399   0.0000
    37 C9          29.8900   -53.7280    72.0680 C.ar         1 FAD399   0.0000
    38 C9A         30.2550   -54.9650    72.6700 C.ar         1 FAD399   0.0000
    39 N10         31.6240   -55.4370    72.8180 N.pl3        1 FAD399   0.0000
    40 C10         31.9240   -56.6200    73.5290 C.2          1 FAD399   0.0000
    41 C1'         32.6820   -54.5430    72.2730 C.3          1 FAD399   0.0000
    42 C2'         33.0080   -54.6190    70.8000 C.3          1 FAD399   0.0000
    43 O2'         33.7660   -55.8220    70.5850 O.3          1 FAD399   0.0000
    44 C3'         33.7780   -53.3560    70.3810 C.3          1 FAD399   0.0000
    45 O3'         32.8750   -52.2350    70.6260 O.3          1 FAD399   0.0000
    46 C4'         34.1680   -53.3550    68.9000 C.3          1 FAD399   0.0000
    47 O4'         35.1010   -54.4570    68.7180 O.3          1 FAD399   0.0000
    48 C5'         34.9070   -52.0970    68.4910 C.3          1 FAD399   0.0000
    49 O5'         35.8700   -51.5420    69.4300 O.3          1 FAD399   0.0000
    50 P           35.6720   -50.0150    69.8770 P.3          1 FAD399   0.0000
    51 O1P         34.2760   -49.8420    70.3320 O.co2        1 FAD399   0.0000
    52 O2P         36.7570   -49.7120    70.8160 O.co2        1 FAD399  -1.0000
    53 O3P         35.8540   -49.1500    68.5310 O.3          1 FAD399   0.0000
    54 H5B1        36.5291   -46.4238    66.3198 H            1 FAD399   0.0000
    55 H5B2        35.1785   -47.3300    66.4667 H            1 FAD399   0.0000
    56 H4B         35.3996   -46.3347    64.2545 H            1 FAD399   0.0000
    57 H3B         34.5173   -48.7925    64.5841 H            1 FAD399   0.0000
    58 H5          34.7070   -47.1130    62.3666 H            1 FAD399   0.0000
    59 H2B         36.5451   -49.7863    64.2209 H            1 FAD399   0.0000
    60 H7          34.9907   -49.8218    61.9393 H            1 FAD399   0.0000
    61 H1B         36.9574   -48.0050    61.9979 H            1 FAD399   0.0000
    62 H8A         39.0193   -49.4107    64.8715 H            1 FAD399   0.0000
    63 H6A1        43.5185   -50.0580    60.7688 H            1 FAD399   0.0000
    64 H6A2        43.0736   -50.2752    62.4286 H            1 FAD399   0.0000
    65 H2A         39.9188   -48.3512    58.7214 H            1 FAD399   0.0000
    66 H13         32.7157   -59.7689    75.4986 H            1 FAD399   0.0000
    67 H14         27.1342   -56.0740    73.4252 H            1 FAD399   0.0000
    68 H7M1        25.9508   -52.9432    71.9362 H            1 FAD399   0.0000
    69 H7M2        25.5412   -54.5213    71.8452 H            1 FAD399   0.0000
    70 H7M3        25.6418   -53.7864    73.3000 H            1 FAD399   0.0000
    71 H8M1        29.0588   -51.5552    71.0466 H            1 FAD399   0.0000
    72 H8M2        27.6311   -52.1572    70.5311 H            1 FAD399   0.0000
    73 H8M3        27.7327   -51.4343    71.9918 H            1 FAD399   0.0000
    74 H21         30.6018   -53.1230    71.7110 H            1 FAD399   0.0000
    75 H1'1        33.5246   -54.7460    72.7718 H            1 FAD399   0.0000
    76 H1'2        32.4000   -53.6028    72.4639 H            1 FAD399   0.0000
    77 H2'         32.1563   -54.6712    70.2785 H            1 FAD399   0.0000
    78 H25         34.2927   -56.0357    71.4078 H            1 FAD399   0.0000
    79 H3'         34.5976   -53.2582    70.9455 H            1 FAD399   0.0000
    80 H27         33.3269   -51.3807    70.3694 H            1 FAD399   0.0000
    81 H4'         33.3590   -53.4855    68.3268 H            1 FAD399   0.0000
    82 H29         34.8927   -55.1820    69.3745 H            1 FAD399   0.0000
    83 H5'1        34.2206   -51.3913    68.3153 H            1 FAD399   0.0000
    84 H5'2        35.3990   -52.3016    67.6448 H            1 FAD399   0.0000
@<TRIPOS>BOND
     1    1    2      ar
     2    1    3      ar
     3    1    4       1
     4    1   53       1
     5    4    5       1
     6    5    6       1
     7    6    7       1
     8    6    8       1
     9    7   12       1
    10    8    9       1
    11    8   10       1
    12   10   11       1
    13   10   12       1
    14   12   13       1
    15   13   14       1
    16   13   22       1
    17   14   15       2
    18   15   16       1
    19   16   17      ar
    20   16   22      ar
    21   17   18       1
    22   17   19      ar
    23   19   20      ar
    24   20   21      ar
    25   21   22      ar
    26   23   24       1
    27   23   40       2
    28   24   25       2
    29   24   26       1
    30   26   27       1
    31   27   28       2
    32   27   29       1
    33   29   30       2
    34   29   40       1
    35   30   31       1
    36   31   32      ar
    37   31   38      ar
    38   32   33      ar
    39   33   34       1
    40   33   35      ar
    41   35   36       1
    42   35   37      ar
    43   37   38      ar
    44   38   39       1
    45   39   40       1
    46   39   41       1
    47   41   42       1
    48   42   43       1
    49   42   44       1
    50   44   45       1
    51   44   46       1
    52   46   47       1
    53   46   48       1
    54   48   49       1
    55   49   50       1
    56   50   51      ar
    57   50   52      ar
    58   50   53       1
    59   48   84       1
    60    5   54       1
    61    5   55       1
    62    6   56       1
    63    8   57       1
    64    9   58       1
    65   10   59       1
    66   11   60       1
    67   12   61       1
    68   14   62       1
    69   18   63       1
    70   18   64       1
    71   20   65       1
    72   26   66       1
    73   32   67       1
    74   34   68       1
    75   34   69       1
    76   34   70       1
    77   36   71       1
    78   36   72       1
    79   36   73       1
    80   37   74       1
    81   41   75       1
    82   41   76       1
    83   42   77       1
    84   43   78       1
    85   44   79       1
    86   45   80       1
    87   46   81       1
    88   47   82       1
    89   48   83       1
@<TRIPOS>SUBSTRUCTURE
     1 FAD399      1 GROUP             4 B     FAD     0 **** FAD B 399
