@<TRIPOS>MOLECULE
1ebd_FAD_2_ligand
   84    89     1     0     0
SMALL
NO_CHARGES


@<TRIPOS>ATOM
     1 PA         117.3740    53.6950    10.9740 P.3          1 FAD462   0.0000
     2 O1A        116.7510    54.2890    12.1800 O.co2        1 FAD462   0.0000
     3 O2A        118.4910    54.4300    10.3570 O.co2        1 FAD462  -1.0000
     4 O5B        117.7890    52.2080    11.3790 O.3          1 FAD462   0.0000
     5 C5B        118.2220    51.2750    10.3920 C.3          1 FAD462   0.0000
     6 C4B        119.0070    50.1700    11.0810 C.3          1 FAD462   0.0000
     7 O4B        119.5170    49.2350    10.1370 O.3          1 FAD462   0.0000
     8 C3B        120.2250    50.6810    11.8260 C.3          1 FAD462   0.0000
     9 O3B        120.1330    50.3600    13.2180 O.3          1 FAD462   0.0000
    10 C2B        121.4100    49.9450    11.2320 C.3          1 FAD462   0.0000
    11 O2B        122.3230    49.6570    12.2980 O.3          1 FAD462   0.0000
    12 C1B        120.7340    48.7180    10.6680 C.3          1 FAD462   0.0000
    13 N9A        121.4200    48.0840     9.5270 N.pl3        1 FAD462   0.0000
    14 C8A        121.6820    48.6920     8.3650 C.2          1 FAD462   0.0000
    15 N7A        122.0400    47.7720     7.4690 N.2          1 FAD462   0.0000
    16 C5A        122.0240    46.6070     8.0880 C.ar         1 FAD462   0.0000
    17 C6A        122.3300    45.3510     7.7120 C.ar         1 FAD462   0.0000
    18 N6A        122.6210    45.0900     6.4440 N.pl3        1 FAD462   0.0000
    19 N1A        122.3490    44.3470     8.5920 N.ar         1 FAD462   0.0000
    20 C2A        122.0550    44.5550     9.8690 C.ar         1 FAD462   0.0000
    21 N3A        121.7120    45.7630    10.2860 N.ar         1 FAD462   0.0000
    22 C4A        121.6730    46.7810     9.4140 C.ar         1 FAD462   0.0000
    23 N1         113.4320    62.0160    12.3670 N.2          1 FAD462   0.0000
    24 C2         112.3150    62.4660    12.9640 C.2          1 FAD462   0.0000
    25 O2         111.2510    61.8770    12.7730 O.2          1 FAD462   0.0000
    26 N3         112.3700    63.5370    13.8680 N.pl3        1 FAD462   0.0000
    27 C4         113.5940    64.1450    14.1390 C.2          1 FAD462   0.0000
    28 O4         113.6750    65.0860    14.9260 O.2          1 FAD462   0.0000
    29 C4X        114.7320    63.6660    13.5090 C.2          1 FAD462   0.0000
    30 N5         115.9280    64.1760    13.8310 N.2          1 FAD462   0.0000
    31 C5X        117.0700    63.6530    13.3830 C.ar         1 FAD462   0.0000
    32 C6         118.2580    64.2030    13.8480 C.ar         1 FAD462   0.0000
    33 C7         119.4530    63.6330    13.4370 C.ar         1 FAD462   0.0000
    34 C7M        120.7460    64.2050    14.0130 C.3          1 FAD462   0.0000
    35 C8         119.4440    62.5290    12.5660 C.ar         1 FAD462   0.0000
    36 C8M        120.7380    61.9040    12.0490 C.3          1 FAD462   0.0000
    37 C9         118.2450    61.9750    12.1150 C.ar         1 FAD462   0.0000
    38 C9A        117.0430    62.5490    12.5230 C.ar         1 FAD462   0.0000
    39 N10        115.7940    62.0320    12.1260 N.pl3        1 FAD462   0.0000
    40 C10        114.6220    62.5860    12.6310 C.2          1 FAD462   0.0000
    41 C1'        115.6590    60.9530    11.1260 C.3          1 FAD462   0.0000
    42 C2'        115.4570    59.5800    11.7710 C.3          1 FAD462   0.0000
    43 O2'        116.6400    59.1970    12.5030 O.3          1 FAD462   0.0000
    44 C3'        115.1970    58.5680    10.6600 C.3          1 FAD462   0.0000
    45 O3'        114.1910    59.0560     9.7480 O.3          1 FAD462   0.0000
    46 C4'        114.7610    57.2390    11.2590 C.3          1 FAD462   0.0000
    47 O4'        115.7180    56.7680    12.2030 O.3          1 FAD462   0.0000
    48 C5'        114.6900    56.1970    10.1570 C.3          1 FAD462   0.0000
    49 O5'        114.5020    54.9020    10.7150 O.3          1 FAD462   0.0000
    50 P          114.6980    53.5890     9.8150 P.3          1 FAD462   0.0000
    51 O1P        114.0810    52.4880    10.6090 O.co2        1 FAD462   0.0000
    52 O2P        114.2770    53.8300     8.4040 O.co2        1 FAD462  -1.0000
    53 O3P        116.2780    53.4590     9.8650 O.3          1 FAD462   0.0000
    54 H5B1       118.8058    51.7372     9.7245 H            1 FAD462   0.0000
    55 H5B2       117.4280    50.8842     9.9263 H            1 FAD462   0.0000
    56 H4B        118.4066    49.6930    11.7229 H            1 FAD462   0.0000
    57 H3B        120.3254    51.6678    11.6993 H            1 FAD462   0.0000
    58 H5         120.0777    49.3676    13.3283 H            1 FAD462   0.0000
    59 H2B        121.8488    50.4825    10.5119 H            1 FAD462   0.0000
    60 H7         121.8675    49.0876    12.9823 H            1 FAD462   0.0000
    61 H1B        120.5516    48.0496    11.3891 H            1 FAD462   0.0000
    62 H8A        121.6196    49.6756     8.1959 H            1 FAD462   0.0000
    63 H6A1       122.8483    44.1570     6.1650 H            1 FAD462   0.0000
    64 H6A2       122.6131    45.8263     5.7674 H            1 FAD462   0.0000
    65 H2A        122.0928    43.7959    10.5188 H            1 FAD462   0.0000
    66 H13        111.5365    63.8619    14.3149 H            1 FAD462   0.0000
    67 H14        118.2513    64.9907    14.4640 H            1 FAD462   0.0000
    68 H7M1       121.5274    63.7071    13.6368 H            1 FAD462   0.0000
    69 H7M2       120.8194    65.1725    13.7710 H            1 FAD462   0.0000
    70 H7M3       120.7382    64.1100    15.0084 H            1 FAD462   0.0000
    71 H8M1       120.5199    61.1359    11.4469 H            1 FAD462   0.0000
    72 H8M2       121.2589    62.5892    11.5399 H            1 FAD462   0.0000
    73 H8M3       121.2825    61.5777    12.8217 H            1 FAD462   0.0000
    74 H21        118.2487    61.1794    11.5092 H            1 FAD462   0.0000
    75 H1'1       116.4886    60.9267    10.5683 H            1 FAD462   0.0000
    76 H1'2       114.8715    61.1526    10.5428 H            1 FAD462   0.0000
    77 H2'        114.6723    59.6103    12.3901 H            1 FAD462   0.0000
    78 H25        116.7258    58.2007    12.5001 H            1 FAD462   0.0000
    79 H3'        116.0466    58.4260    10.1521 H            1 FAD462   0.0000
    80 H27        114.3615    58.6862     8.8347 H            1 FAD462   0.0000
    81 H4'        113.8671    57.3368    11.6965 H            1 FAD462   0.0000
    82 H29        116.0684    55.8793    11.9073 H            1 FAD462   0.0000
    83 H5'1       115.5424    56.2107     9.6344 H            1 FAD462   0.0000
    84 H5'2       113.9238    56.4096     9.5506 H            1 FAD462   0.0000
@<TRIPOS>BOND
     1    1    2      ar
     2    1    3      ar
     3    1    4       1
     4    1   53       1
     5    4    5       1
     6    5    6       1
     7    6    7       1
     8    6    8       1
     9    7   12       1
    10    8    9       1
    11    8   10       1
    12   10   11       1
    13   10   12       1
    14   12   13       1
    15   13   14       1
    16   13   22       1
    17   14   15       2
    18   15   16       1
    19   16   17      ar
    20   16   22      ar
    21   17   18       1
    22   17   19      ar
    23   19   20      ar
    24   20   21      ar
    25   21   22      ar
    26   23   24       1
    27   23   40       2
    28   24   25       2
    29   24   26       1
    30   26   27       1
    31   27   28       2
    32   27   29       1
    33   29   30       2
    34   29   40       1
    35   30   31       1
    36   31   32      ar
    37   31   38      ar
    38   32   33      ar
    39   33   34       1
    40   33   35      ar
    41   35   36       1
    42   35   37      ar
    43   37   38      ar
    44   38   39       1
    45   39   40       1
    46   39   41       1
    47   41   42       1
    48   42   43       1
    49   42   44       1
    50   44   45       1
    51   44   46       1
    52   46   47       1
    53   46   48       1
    54   48   49       1
    55   49   50       1
    56   50   51      ar
    57   50   52      ar
    58   50   53       1
    59   48   84       1
    60    5   54       1
    61    5   55       1
    62    6   56       1
    63    8   57       1
    64    9   58       1
    65   10   59       1
    66   11   60       1
    67   12   61       1
    68   14   62       1
    69   18   63       1
    70   18   64       1
    71   20   65       1
    72   26   66       1
    73   32   67       1
    74   34   68       1
    75   34   69       1
    76   34   70       1
    77   36   71       1
    78   36   72       1
    79   36   73       1
    80   37   74       1
    81   41   75       1
    82   41   76       1
    83   42   77       1
    84   43   78       1
    85   44   79       1
    86   45   80       1
    87   46   81       1
    88   47   82       1
    89   48   83       1
@<TRIPOS>SUBSTRUCTURE
     1 FAD462      1 GROUP             4 B     FAD     0 **** FAD B 462
