@<TRIPOS>MOLECULE
3wie_DN4_3_ligand
   72    76     1     0     0
SMALL
NO_CHARGES


@<TRIPOS>ATOM
     1 PA           2.3540   -15.6270    50.0750 P.3          1 DN41003   0.0000
     2 O1A          0.9560   -15.9270    50.3600 O.co2        1 DN41003   0.0000
     3 O2A          3.4030   -16.3380    50.8460 O.co2        1 DN41003  -1.0000
     4 O5B          2.5280   -16.0050    48.5280 O.3          1 DN41003   0.0000
     5 C5B          3.3960   -17.0830    48.1890 C.3          1 DN41003   0.0000
     6 C4B          2.7820   -17.8760    47.0570 C.3          1 DN41003   0.0000
     7 O4B          3.6360   -19.0400    46.8930 O.3          1 DN41003   0.0000
     8 C3B          1.3980   -18.4050    47.4390 C.3          1 DN41003   0.0000
     9 O3B          0.5500   -18.3250    46.3010 O.3          1 DN41003   0.0000
    10 C2B          1.6800   -19.8500    47.8040 C.3          1 DN41003   0.0000
    11 O2B          0.5590   -20.6850    47.5690 O.3          1 DN41003   0.0000
    12 C1B          2.7360   -20.1550    46.7640 C.3          1 DN41003   0.0000
    13 N9A          3.5080   -21.4070    46.9790 N.pl3        1 DN41003   0.0000
    14 C8A          4.0840   -22.0280    48.0170 C.2          1 DN41003   0.0000
    15 N7A          4.6680   -23.1360    47.5210 N.2          1 DN41003   0.0000
    16 C5A          4.4530   -23.1700    46.2000 C.ar         1 DN41003   0.0000
    17 C6A          4.7990   -23.9980    45.2450 C.ar         1 DN41003   0.0000
    18 N6A          5.4890   -25.0400    45.5770 N.pl3        1 DN41003   0.0000
    19 N1A          4.4610   -23.8360    43.9710 N.ar         1 DN41003   0.0000
    20 C2A          3.7160   -22.7280    43.6190 C.ar         1 DN41003   0.0000
    21 N3A          3.3790   -21.8570    44.6230 N.ar         1 DN41003   0.0000
    22 C4A          3.7450   -22.1020    45.8790 C.ar         1 DN41003   0.0000
    23 O3           2.6240   -13.9990    50.2430 O.3          1 DN41003   0.0000
    24 PN           3.3240   -12.8350    49.1860 P.3          1 DN41003   0.0000
    25 O1N          3.0720   -11.5240    49.7990 O.co2        1 DN41003   0.0000
    26 O2N          2.8240   -13.1060    47.8310 O.co2        1 DN41003  -1.0000
    27 O5D          4.9830   -12.9420    49.3030 O.3          1 DN41003   0.0000
    28 C5D          5.7200   -14.0370    48.7250 C.3          1 DN41003   0.0000
    29 C4D          7.1500   -14.0490    49.2950 C.3          1 DN41003   0.0000
    30 O4D          7.8140   -12.7550    49.3670 O.3          1 DN41003   0.0000
    31 C3D          7.1860   -14.5790    50.7500 C.3          1 DN41003   0.0000
    32 O3D          8.1390   -15.6620    50.7960 O.3          1 DN41003   0.0000
    33 C2D          7.6280   -13.3170    51.5240 C.3          1 DN41003   0.0000
    34 O2D          8.2780   -13.5700    52.7720 O.3          1 DN41003   0.0000
    35 C1D          8.6230   -12.8300    50.5390 C.3          1 DN41003   0.0000
    36 N1N          9.0880   -11.4600    50.6920 N.ar         1 DN41003   1.0000
    37 C2N         10.2880   -11.1950    50.0330 C.ar         1 DN41003   0.0000
    38 C3N         10.8520    -9.9240    50.0630 C.ar         1 DN41003   0.0000
    39 C7N         12.0790    -9.6460    49.3750 C.2          1 DN41003   0.0000
    40 O7N         12.9000   -10.5950    48.9710 O.3          1 DN41003   0.0000
    41 C4N         10.1450    -8.9250    50.7610 C.ar         1 DN41003   0.0000
    42 C5N          8.9370    -9.1860    51.4200 C.ar         1 DN41003   0.0000
    43 C6N          8.3890   -10.4530    51.3940 C.ar         1 DN41003   0.0000
    44 P2B         -0.5490   -21.1920    48.7230 P.3          1 DN41003   0.0000
    45 O1X         -1.8430   -20.5220    48.5200 O.co2        1 DN41003   0.0000
    46 O2X         -0.5120   -22.7840    48.3530 O.co2        1 DN41003  -1.0000
    47 O3X          0.0460   -20.9610    50.1590 O.co2        1 DN41003  -1.0000
    48 O8N         12.3070    -8.4100    49.1290 O.2          1 DN41003   0.0000
    49 H5B1         3.5198   -17.6760    48.9846 H            1 DN41003   0.0000
    50 H5B2         4.2829   -16.7211    47.9018 H            1 DN41003   0.0000
    51 H4B          2.7429   -17.3353    46.2167 H            1 DN41003   0.0000
    52 H3B          1.0164   -17.9012    48.2140 H            1 DN41003   0.0000
    53 H5           0.2226   -19.2398    46.0643 H            1 DN41003   0.0000
    54 H2B          2.0305   -19.9423    48.7360 H            1 DN41003   0.0000
    55 H1B          2.3259   -20.1591    45.8520 H            1 DN41003   0.0000
    56 H8A          4.0810   -21.7284    48.9711 H            1 DN41003   0.0000
    57 H6A1         5.7724   -25.6958    44.8773 H            1 DN41003   0.0000
    58 H6A2         5.7392   -25.1901    46.5335 H            1 DN41003   0.0000
    59 H2A          3.4344   -22.5677    42.6729 H            1 DN41003   0.0000
    60 H5D1         5.7577   -13.9263    47.7319 H            1 DN41003   0.0000
    61 H5D2         5.2651   -14.8994    48.9472 H            1 DN41003   0.0000
    62 H4D          7.7075   -14.6552    48.7277 H            1 DN41003   0.0000
    63 H3D          6.2803   -14.8835    51.0449 H            1 DN41003   0.0000
    64 H16          8.1848   -16.0264    51.7261 H            1 DN41003   0.0000
    65 H2D          6.8726   -12.6704    51.6302 H            1 DN41003   0.0000
    66 H18          8.5272   -12.7013    53.2002 H            1 DN41003   0.0000
    67 H1D          9.3822   -13.4713    50.4277 H            1 DN41003   0.0000
    68 H2N         10.7488   -11.9280    49.5326 H            1 DN41003   0.0000
    69 H4N         10.5185    -7.9977    50.7868 H            1 DN41003   0.0000
    70 H5N          8.4693    -8.4514    51.9116 H            1 DN41003   0.0000
    71 H6N          7.5252   -10.6514    51.8571 H            1 DN41003   0.0000
    72 H7N         13.7457   -10.3550    48.4944 H            1 DN41003   0.0000
@<TRIPOS>BOND
     1    1    2      ar
     2    1    3      ar
     3    1    4       1
     4    1   23       1
     5    4    5       1
     6    5    6       1
     7    6    7       1
     8    6    8       1
     9    7   12       1
    10    8    9       1
    11    8   10       1
    12   10   11       1
    13   10   12       1
    14   11   44       1
    15   12   13       1
    16   13   14       1
    17   13   22       1
    18   14   15       2
    19   15   16       1
    20   16   17      ar
    21   16   22      ar
    22   17   18       1
    23   17   19      ar
    24   19   20      ar
    25   20   21      ar
    26   21   22      ar
    27   23   24       1
    28   24   25      ar
    29   24   26      ar
    30   24   27       1
    31   27   28       1
    32   28   29       1
    33   29   30       1
    34   29   31       1
    35   30   35       1
    36   31   32       1
    37   31   33       1
    38   33   34       1
    39   33   35       1
    40   35   36       1
    41   36   37      ar
    42   36   43      ar
    43   37   38      ar
    44   38   39       1
    45   38   41      ar
    46   39   40       1
    47   39   48       2
    48   41   42      ar
    49   42   43      ar
    50   44   45      ar
    51   44   46      ar
    52   44   47      ar
    53   41   69       1
    54    5   49       1
    55    5   50       1
    56    6   51       1
    57    8   52       1
    58    9   53       1
    59   10   54       1
    60   12   55       1
    61   14   56       1
    62   18   57       1
    63   18   58       1
    64   20   59       1
    65   42   70       1
    66   28   60       1
    67   28   61       1
    68   29   62       1
    69   31   63       1
    70   32   64       1
    71   33   65       1
    72   34   66       1
    73   35   67       1
    74   37   68       1
    75   43   71       1
    76   40   72       1
@<TRIPOS>SUBSTRUCTURE
     1 DN41003     1 GROUP             4 C     DN4     0 **** DN4 C1003
