@<TRIPOS>MOLECULE
1lvl_NAD_2_ligand
   70    74     1     0     0
SMALL
NO_CHARGES


@<TRIPOS>ATOM
     1 PA          -2.9500   -52.5490   -49.6770 P.3          1 NAD460   0.0000
     2 O1A         -4.0290   -53.5270   -49.9930 O.co2        1 NAD460   0.0000
     3 O2A         -3.3300   -51.4710   -48.7280 O.co2        1 NAD460  -1.0000
     4 O5B         -1.6540   -53.4020   -49.2240 O.3          1 NAD460   0.0000
     5 C5B         -0.6880   -53.1370   -48.1820 C.3          1 NAD460   0.0000
     6 C4B          0.0240   -54.4700   -47.9050 C.3          1 NAD460   0.0000
     7 O4B          1.0290   -54.4590   -46.8710 O.3          1 NAD460   0.0000
     8 C3B         -0.9760   -55.5360   -47.4820 C.3          1 NAD460   0.0000
     9 O3B         -0.8070   -56.7280   -48.2510 O.3          1 NAD460   0.0000
    10 C2B         -0.6970   -55.8230   -46.0240 C.3          1 NAD460   0.0000
    11 O2B         -1.1560   -57.1650   -45.7820 O.3          1 NAD460   0.0000
    12 C1B          0.8070   -55.5890   -45.9920 C.3          1 NAD460   0.0000
    13 N9A          1.3730   -55.3710   -44.6240 N.pl3        1 NAD460   0.0000
    14 C8A          0.8650   -54.5810   -43.6580 C.2          1 NAD460   0.0000
    15 N7A          1.7520   -54.3710   -42.6730 N.2          1 NAD460   0.0000
    16 C5A          2.8080   -55.0670   -43.0540 C.ar         1 NAD460   0.0000
    17 C6A          3.9600   -55.1670   -42.3030 C.ar         1 NAD460   0.0000
    18 N6A          4.0650   -54.5560   -41.1340 N.pl3        1 NAD460   0.0000
    19 N1A          4.9250   -55.9500   -42.8000 N.ar         1 NAD460   0.0000
    20 C2A          4.7270   -56.5820   -43.9540 C.ar         1 NAD460   0.0000
    21 N3A          3.6100   -56.4950   -44.6710 N.ar         1 NAD460   0.0000
    22 C4A          2.6060   -55.7160   -44.2400 C.ar         1 NAD460   0.0000
    23 O3          -2.3010   -51.9380   -51.0140 O.3          1 NAD460   0.0000
    24 PN          -0.9200   -51.1910   -51.3930 P.3          1 NAD460   0.0000
    25 O1N          0.2390   -51.8350   -50.7380 O.co2        1 NAD460   0.0000
    26 O2N         -0.8160   -51.0880   -52.8710 O.co2        1 NAD460  -1.0000
    27 O5D         -1.1370   -49.7260   -50.7400 O.3          1 NAD460   0.0000
    28 C5D         -1.8470   -48.2190   -51.1630 C.3          1 NAD460   0.0000
    29 C4D         -2.9280   -48.5580   -52.1800 C.3          1 NAD460   0.0000
    30 O4D         -3.9290   -49.4530   -51.6660 O.3          1 NAD460   0.0000
    31 C3D         -3.6770   -47.3340   -52.6790 C.3          1 NAD460   0.0000
    32 O3D         -3.0060   -46.5720   -53.6990 O.3          1 NAD460   0.0000
    33 C2D         -4.9350   -47.9750   -53.2450 C.3          1 NAD460   0.0000
    34 O2D         -4.9090   -48.0490   -54.6760 O.3          1 NAD460   0.0000
    35 C1D         -5.0690   -49.3350   -52.5540 C.3          1 NAD460   0.0000
    36 N1N         -6.3440   -49.3970   -51.7840 N.ar         1 NAD460   1.0000
    37 C2N         -6.3390   -49.0030   -50.4370 C.ar         1 NAD460   0.0000
    38 C3N         -7.5300   -48.7680   -49.7510 C.ar         1 NAD460   0.0000
    39 C7N         -7.4520   -48.4430   -48.2420 C.2          1 NAD460   0.0000
    40 O7N         -8.4680   -48.1740   -47.5910 O.2          1 NAD460   0.0000
    41 N7N         -6.2230   -48.4260   -47.7100 N.am         1 NAD460   0.0000
    42 C4N         -8.7560   -48.9300   -50.4180 C.ar         1 NAD460   0.0000
    43 C5N         -8.7780   -49.3510   -51.7460 C.ar         1 NAD460   0.0000
    44 C6N         -7.5830   -49.5920   -52.4270 C.ar         1 NAD460   0.0000
    45 H5B1        -1.1496   -52.8128   -47.3562 H            1 NAD460   0.0000
    46 H5B2        -0.0292   -52.4494   -48.4873 H            1 NAD460   0.0000
    47 H4B          0.4572   -54.7717   -48.7543 H            1 NAD460   0.0000
    48 H3B         -1.9083   -55.1905   -47.5891 H            1 NAD460   0.0000
    49 H5           0.1179   -57.0835   -48.1160 H            1 NAD460   0.0000
    50 H2B         -1.1728   -55.1707   -45.4340 H            1 NAD460   0.0000
    51 H7          -0.6590   -57.7992   -46.3743 H            1 NAD460   0.0000
    52 H1B          1.2558   -56.3883   -46.3917 H            1 NAD460   0.0000
    53 H8A         -0.0588   -54.1984   -43.6731 H            1 NAD460   0.0000
    54 H6A1         4.9070   -54.6380   -40.6008 H            1 NAD460   0.0000
    55 H6A2         3.3023   -54.0123   -40.7837 H            1 NAD460   0.0000
    56 H2A          5.4647   -57.1590   -44.3045 H            1 NAD460   0.0000
    57 H5D1        -1.1638   -47.6107   -51.5671 H            1 NAD460   0.0000
    58 H5D2        -2.2478   -47.7820   -50.3578 H            1 NAD460   0.0000
    59 H4D         -2.4908   -48.9972   -52.9648 H            1 NAD460   0.0000
    60 H3D         -3.9128   -46.7408   -51.9093 H            1 NAD460   0.0000
    61 H17         -3.2651   -46.9202   -54.5999 H            1 NAD460   0.0000
    62 H2D         -5.7173   -47.4125   -52.9775 H            1 NAD460   0.0000
    63 H19         -5.6818   -47.5365   -55.0504 H            1 NAD460   0.0000
    64 H1D         -5.0469   -50.0666   -53.2353 H            1 NAD460   0.0000
    65 H2N         -5.4668   -48.8889   -49.9613 H            1 NAD460   0.0000
    66 H7N1        -6.1015   -48.2226   -46.7385 H            1 NAD460   0.0000
    67 H7N2        -5.4269   -48.6168   -48.2843 H            1 NAD460   0.0000
    68 H4N         -9.6137   -48.7429   -49.9391 H            1 NAD460   0.0000
    69 H5N         -9.6526   -49.4810   -52.2131 H            1 NAD460   0.0000
    70 H6N         -7.6064   -49.9048   -53.3765 H            1 NAD460   0.0000
@<TRIPOS>BOND
     1    1    2      ar
     2    1    3      ar
     3    1    4       1
     4    1   23       1
     5    4    5       1
     6    5    6       1
     7    6    7       1
     8    6    8       1
     9    7   12       1
    10    8    9       1
    11    8   10       1
    12   10   11       1
    13   10   12       1
    14   12   13       1
    15   13   14       1
    16   13   22       1
    17   14   15       2
    18   15   16       1
    19   16   17      ar
    20   16   22      ar
    21   17   18       1
    22   17   19      ar
    23   19   20      ar
    24   20   21      ar
    25   21   22      ar
    26   23   24       1
    27   24   25      ar
    28   24   26      ar
    29   24   27       1
    30   27   28       1
    31   28   29       1
    32   29   30       1
    33   29   31       1
    34   30   35       1
    35   31   32       1
    36   31   33       1
    37   33   34       1
    38   33   35       1
    39   35   36       1
    40   36   37      ar
    41   36   44      ar
    42   37   38      ar
    43   38   39       1
    44   38   42      ar
    45   39   40       2
    46   39   41      am
    47   42   43      ar
    48   43   44      ar
    49   44   70       1
    50    5   45       1
    51    5   46       1
    52    6   47       1
    53    8   48       1
    54    9   49       1
    55   10   50       1
    56   11   51       1
    57   12   52       1
    58   14   53       1
    59   18   54       1
    60   18   55       1
    61   20   56       1
    62   43   69       1
    63   28   57       1
    64   28   58       1
    65   29   59       1
    66   31   60       1
    67   32   61       1
    68   33   62       1
    69   34   63       1
    70   35   64       1
    71   37   65       1
    72   41   66       1
    73   41   67       1
    74   42   68       1
@<TRIPOS>SUBSTRUCTURE
     1 NAD460      1 GROUP             4 A     NAD     0 **** NAD A 460
