@<TRIPOS>MOLECULE
2r5p_MK1_2_ligand
   94    98     1     0     0
SMALL
NO_CHARGES


@<TRIPOS>ATOM
     1 N1          16.2890   -20.3430    41.3760 N.4          1 MK1902   1.0000
     2 C1          14.8200   -20.2530    41.1260 C.3          1 MK1902   0.0000
     3 C2          14.4380   -19.1210    40.1710 C.3          1 MK1902   0.0000
     4 C3          12.9250   -19.1360    39.9770 C.2          1 MK1902   0.0000
     5 O1          12.2010   -18.7350    40.9010 O.2          1 MK1902   0.0000
     6 N2          12.4730   -19.6010    38.7850 N.am         1 MK1902   0.0000
     7 C4          11.0720   -19.7060    38.3660 C.3          1 MK1902   0.0000
     8 C5          11.1360   -20.3080    36.9660 C.3          1 MK1902   0.0000
     9 C6          10.4380   -18.3160    38.2910 C.3          1 MK1902   0.0000
    10 C7          10.2730   -20.6610    39.2560 C.3          1 MK1902   0.0000
    11 N3          14.9500   -17.8210    40.8210 N.4          1 MK1902   1.0000
    12 C8          16.4130   -17.8390    41.0510 C.3          1 MK1902   0.0000
    13 C9          16.7430   -19.0510    41.9210 C.3          1 MK1902   0.0000
    14 C10         14.6690   -16.6190    39.9910 C.3          1 MK1902   0.0000
    15 C11         14.2110   -15.4420    40.8780 C.3          1 MK1902   0.0000
    16 O2          14.7560   -14.2680    40.2680 O.3          1 MK1902   0.0000
    17 C12         12.6750   -15.2750    40.9580 C.3          1 MK1902   0.0000
    18 C13         12.2150   -14.1130    41.8600 C.3          1 MK1902   0.0000
    19 C14         10.6700   -14.0250    41.8490 C.3          1 MK1902   0.0000
    20 C15         10.1180   -12.9070    42.7260 C.ar         1 MK1902   0.0000
    21 C16         10.4860   -11.5460    42.5260 C.ar         1 MK1902   0.0000
    22 C17          9.9780   -10.5200    43.3490 C.ar         1 MK1902   0.0000
    23 C18          9.0850   -10.8730    44.3870 C.ar         1 MK1902   0.0000
    24 C19          8.7080   -12.2230    44.5950 C.ar         1 MK1902   0.0000
    25 C20          9.2250   -13.2460    43.7650 C.ar         1 MK1902   0.0000
    26 C21         12.7090   -14.3240    43.3020 C.2          1 MK1902   0.0000
    27 O3          12.6690   -15.4100    43.9000 O.2          1 MK1902   0.0000
    28 N4          13.1850   -13.2160    43.8690 N.am         1 MK1902   0.0000
    29 C22         13.2830   -13.0260    45.2830 C.3          1 MK1902   0.0000
    30 C23         12.8680   -11.6550    45.8000 C.3          1 MK1902   0.0000
    31 O4          13.2570   -10.6150    44.8820 O.3          1 MK1902   0.0000
    32 C24         13.5950   -11.5060    47.1090 C.3          1 MK1902   0.0000
    33 C25         14.8810   -12.2830    46.9340 C.ar         1 MK1902   0.0000
    34 C26         16.1300   -12.2490    47.6120 C.ar         1 MK1902   0.0000
    35 C27         17.1540   -13.1210    47.1980 C.ar         1 MK1902   0.0000
    36 C28         16.9850   -14.0160    46.1340 C.ar         1 MK1902   0.0000
    37 C29         15.7530   -14.0470    45.4650 C.ar         1 MK1902   0.0000
    38 C30         14.6800   -13.1980    45.8270 C.ar         1 MK1902   0.0000
    39 C31         16.6030   -21.4700    42.2860 C.3          1 MK1902   0.0000
    40 C32         16.2210   -22.8810    41.8840 C.ar         1 MK1902   0.0000
    41 C33         16.8500   -23.5150    40.7950 C.ar         1 MK1902   0.0000
    42 N5          16.5720   -24.8190    40.3320 N.ar         1 MK1902   0.0000
    43 C34         15.5670   -25.4430    41.1010 C.ar         1 MK1902   0.0000
    44 C35         14.8880   -24.8950    42.1970 C.ar         1 MK1902   0.0000
    45 C36         15.2220   -23.5870    42.5970 C.ar         1 MK1902   0.0000
    46 H1          14.3579   -20.1009    41.9997 H            1 MK1902   0.0000
    47 H2          14.5113   -21.1187    40.7319 H            1 MK1902   0.0000
    48 H3          14.8911   -19.2573    39.2900 H            1 MK1902   0.0000
    49 H4          13.1637   -19.9018    38.1274 H            1 MK1902   0.0000
    50 H5          10.2091   -20.4130    36.6056 H            1 MK1902   0.0000
    51 H6          11.6601   -19.7030    36.3666 H            1 MK1902   0.0000
    52 H7          11.5807   -21.2027    37.0079 H            1 MK1902   0.0000
    53 H8           9.4836   -18.4000    38.0046 H            1 MK1902   0.0000
    54 H9          10.4790   -17.8819    39.1910 H            1 MK1902   0.0000
    55 H10         10.9369   -17.7574    37.6284 H            1 MK1902   0.0000
    56 H11          9.3267   -20.7022    38.9355 H            1 MK1902   0.0000
    57 H12         10.6791   -21.5739    39.2143 H            1 MK1902   0.0000
    58 H13         10.2912   -20.3309    40.1998 H            1 MK1902   0.0000
    59 H14         16.6928   -17.0003    41.5182 H            1 MK1902   0.0000
    60 H15         16.8926   -17.9092    40.1763 H            1 MK1902   0.0000
    61 H16         17.7358   -19.0922    42.0339 H            1 MK1902   0.0000
    62 H17         16.3112   -18.9205    42.8135 H            1 MK1902   0.0000
    63 H18         13.9475   -16.8351    39.3332 H            1 MK1902   0.0000
    64 H19         15.4999   -16.3568    39.5002 H            1 MK1902   0.0000
    65 H20         14.5865   -15.5483    41.7987 H            1 MK1902   0.0000
    66 H21         14.4029   -14.1819    39.3364 H            1 MK1902   0.0000
    67 H22         12.2850   -16.1236    41.3155 H            1 MK1902   0.0000
    68 H23         12.3282   -15.1119    40.0343 H            1 MK1902   0.0000
    69 H24         12.5931   -13.2570    41.5075 H            1 MK1902   0.0000
    70 H25         10.3011   -14.8951    42.1760 H            1 MK1902   0.0000
    71 H26         10.3687   -13.8675    40.9086 H            1 MK1902   0.0000
    72 H27         11.1177   -11.3131    41.7866 H            1 MK1902   0.0000
    73 H28         10.2425    -9.5668    43.2023 H            1 MK1902   0.0000
    74 H29          8.7145   -10.1602    44.9824 H            1 MK1902   0.0000
    75 H30          8.0732   -12.4541    45.3323 H            1 MK1902   0.0000
    76 H31          8.9604   -14.1989    43.9131 H            1 MK1902   0.0000
    77 H32         13.4912   -12.4749    43.2715 H            1 MK1902   0.0000
    78 H33         12.6984   -13.7075    45.7233 H            1 MK1902   0.0000
    79 H34         11.8797   -11.6289    45.9505 H            1 MK1902   0.0000
    80 H35         13.2569   -10.9763    43.9495 H            1 MK1902   0.0000
    81 H36         13.0528   -11.8879    47.8575 H            1 MK1902   0.0000
    82 H37         13.7890   -10.5429    47.2955 H            1 MK1902   0.0000
    83 H38         16.2786   -11.6154    48.3712 H            1 MK1902   0.0000
    84 H39         18.0305   -13.1010    47.6790 H            1 MK1902   0.0000
    85 H40         17.7300   -14.6224    45.8562 H            1 MK1902   0.0000
    86 H41         15.6287   -14.6890    44.7085 H            1 MK1902   0.0000
    87 H42         16.1438   -21.2801    43.1538 H            1 MK1902   0.0000
    88 H43         17.5933   -21.4649    42.4248 H            1 MK1902   0.0000
    89 H44         17.5535   -22.9971    40.3083 H            1 MK1902   0.0000
    90 H45         15.3130   -26.3732    40.8361 H            1 MK1902   0.0000
    91 H46         14.1864   -25.4177    42.6813 H            1 MK1902   0.0000
    92 H47         14.7594   -23.1619    43.3750 H            1 MK1902   0.0000
    93 H48         16.7513   -20.5003    40.5033 H            1 MK1902   0.0000
    94 H49         14.4934   -17.7086    41.7035 H            1 MK1902   0.0000
@<TRIPOS>BOND
     1    1    2       1
     2    1   13       1
     3    1   39       1
     4    2    3       1
     5    3    4       1
     6    3   11       1
     7    4    5       2
     8    4    6      am
     9    6    7       1
    10    7    8       1
    11    7    9       1
    12    7   10       1
    13   11   12       1
    14   11   14       1
    15   12   13       1
    16   14   15       1
    17   15   16       1
    18   15   17       1
    19   17   18       1
    20   18   19       1
    21   18   26       1
    22   19   20       1
    23   20   21      ar
    24   20   25      ar
    25   21   22      ar
    26   22   23      ar
    27   23   24      ar
    28   24   25      ar
    29   26   27       2
    30   26   28      am
    31   28   29       1
    32   29   30       1
    33   29   38       1
    34   30   31       1
    35   30   32       1
    36   32   33       1
    37   33   34      ar
    38   33   38      ar
    39   34   35      ar
    40   35   36      ar
    41   36   37      ar
    42   37   38      ar
    43   39   40       1
    44   40   41      ar
    45   40   45      ar
    46   41   42      ar
    47   42   43      ar
    48   43   44      ar
    49   44   45      ar
    50    2   46       1
    51    2   47       1
    52    3   48       1
    53    6   49       1
    54    8   50       1
    55    8   51       1
    56    8   52       1
    57    9   53       1
    58    9   54       1
    59    9   55       1
    60   10   56       1
    61   10   57       1
    62   10   58       1
    63   12   59       1
    64   12   60       1
    65   13   61       1
    66   13   62       1
    67   14   63       1
    68   14   64       1
    69   15   65       1
    70   16   66       1
    71   17   67       1
    72   17   68       1
    73   18   69       1
    74   19   70       1
    75   19   71       1
    76   21   72       1
    77   22   73       1
    78   23   74       1
    79   24   75       1
    80   25   76       1
    81   28   77       1
    82   29   78       1
    83   30   79       1
    84   31   80       1
    85   32   81       1
    86   32   82       1
    87   34   83       1
    88   35   84       1
    89   36   85       1
    90   37   86       1
    91   39   87       1
    92   39   88       1
    93   41   89       1
    94   43   90       1
    95   44   91       1
    96   45   92       1
    97    1   93       1
    98   11   94       1
@<TRIPOS>SUBSTRUCTURE
     1 MK1902      1 GROUP             4 D     MK1     0 **** MK1 D 902
