@<TRIPOS>MOLECULE
2jkv_NAP_2_ligand
   73    77     1     0     0
SMALL
NO_CHARGES


@<TRIPOS>ATOM
     1 PA          36.8680    20.3900   -30.1860 P.3          1 NAP500   0.0000
     2 O1A         38.1660    20.2220   -30.8680 O.co2        1 NAP500   0.0000
     3 O2A         36.0440    19.1560   -30.1650 O.co2        1 NAP500  -1.0000
     4 O5B         37.1050    20.9060   -28.6840 O.3          1 NAP500   0.0000
     5 C5B         37.9700    21.9780   -28.4050 C.3          1 NAP500   0.0000
     6 C4B         37.2990    22.8620   -27.3610 C.3          1 NAP500   0.0000
     7 O4B         37.0580    22.0650   -26.2280 O.3          1 NAP500   0.0000
     8 C3B         38.2430    23.9610   -26.9090 C.3          1 NAP500   0.0000
     9 O3B         37.5000    25.0930   -26.5230 O.3          1 NAP500   0.0000
    10 C2B         38.9670    23.3720   -25.7140 C.3          1 NAP500   0.0000
    11 O2B         39.3650    24.2900   -24.7220 O.3          1 NAP500   0.0000
    12 C1B         37.8100    22.5760   -25.1460 C.3          1 NAP500   0.0000
    13 N9A         38.2880    21.5120   -24.2680 N.pl3        1 NAP500   0.0000
    14 C8A         38.9550    20.3810   -24.6350 C.2          1 NAP500   0.0000
    15 N7A         39.1910    19.6780   -23.5080 N.2          1 NAP500   0.0000
    16 C5A         38.6870    20.3460   -22.4460 C.ar         1 NAP500   0.0000
    17 C6A         38.6620    20.0710   -21.0830 C.ar         1 NAP500   0.0000
    18 N6A         39.2080    18.9450   -20.6110 N.pl3        1 NAP500   0.0000
    19 N1A         38.0590    20.9710   -20.2280 N.ar         1 NAP500   0.0000
    20 C2A         37.4860    22.1250   -20.7260 C.ar         1 NAP500   0.0000
    21 N3A         37.5140    22.3870   -22.0790 N.ar         1 NAP500   0.0000
    22 C4A         38.1140    21.5100   -22.9160 C.ar         1 NAP500   0.0000
    23 O3          36.0990    21.6460   -30.8210 O.3          1 NAP500   0.0000
    24 PN          35.0040    21.7870   -31.9780 P.3          1 NAP500   0.0000
    25 O1N         35.4910    20.9810   -33.1110 O.co2        1 NAP500   0.0000
    26 O2N         34.7280    23.2460   -32.1300 O.co2        1 NAP500  -1.0000
    27 O5D         33.7300    21.0080   -31.3620 O.3          1 NAP500   0.0000
    28 C5D         33.0630    21.4840   -30.2200 C.3          1 NAP500   0.0000
    29 C4D         31.9590    20.5180   -29.8320 C.3          1 NAP500   0.0000
    30 O4D         30.9700    20.4540   -30.8400 O.3          1 NAP500   0.0000
    31 C3D         32.5540    19.1310   -29.6990 C.3          1 NAP500   0.0000
    32 O3D         31.8500    18.4670   -28.6740 O.3          1 NAP500   0.0000
    33 C2D         32.3000    18.4980   -31.0500 C.3          1 NAP500   0.0000
    34 O2D         32.0670    17.1260   -30.9040 O.3          1 NAP500   0.0000
    35 C1D         31.0190    19.1790   -31.4760 C.3          1 NAP500   0.0000
    36 N1N         30.8560    19.3250   -32.9340 N.ar         1 NAP500   1.0000
    37 C2N         31.9410    19.3450   -33.7670 C.ar         1 NAP500   0.0000
    38 C3N         31.7660    19.5110   -35.1400 C.ar         1 NAP500   0.0000
    39 C7N         32.9020    19.9930   -36.0000 C.2          1 NAP500   0.0000
    40 O7N         32.6870    20.1160   -37.3790 O.2          1 NAP500   0.0000
    41 N7N         34.0860    20.2940   -35.4680 N.am         1 NAP500   0.0000
    42 C4N         30.4800    19.6340   -35.6510 C.ar         1 NAP500   0.0000
    43 C5N         29.3910    19.6140   -34.7920 C.ar         1 NAP500   0.0000
    44 C6N         29.5940    19.4610   -33.4300 C.ar         1 NAP500   0.0000
    45 P2B         40.8920    24.7800   -24.6790 P.3          1 NAP500   0.0000
    46 O1X         41.1440    25.3250   -23.2870 O.co2        1 NAP500   0.0000
    47 O2X         41.8430    23.6490   -25.0110 O.co2        1 NAP500  -1.0000
    48 O3X         41.1100    25.8680   -25.6830 O.co2        1 NAP500  -1.0000
    49 H5B1        38.1384    22.5044   -29.2384 H            1 NAP500   0.0000
    50 H5B2        38.8376    21.6307   -28.0491 H            1 NAP500   0.0000
    51 H4B         36.4464    23.2470   -27.7143 H            1 NAP500   0.0000
    52 H3B         38.8897    24.1930   -27.6356 H            1 NAP500   0.0000
    53 H5          38.1239    25.8157   -26.2256 H            1 NAP500   0.0000
    54 H2B         39.7221    22.7791   -25.9940 H            1 NAP500   0.0000
    55 H1B         37.2282    23.1919   -24.6148 H            1 NAP500   0.0000
    56 H8A         39.2193    20.1216   -25.5639 H            1 NAP500   0.0000
    57 H6A1        39.1872    18.7523   -19.6300 H            1 NAP500   0.0000
    58 H6A2        39.6370    18.2958   -21.2391 H            1 NAP500   0.0000
    59 H2A         37.0490    22.7731   -20.1023 H            1 NAP500   0.0000
    60 H5D1        32.6662    22.3806   -30.4165 H            1 NAP500   0.0000
    61 H5D2        33.7136    21.5657   -29.4650 H            1 NAP500   0.0000
    62 H4D         31.5471    20.7987   -28.9651 H            1 NAP500   0.0000
    63 H3D         33.5325    19.1743   -29.4973 H            1 NAP500   0.0000
    64 H16         31.9500    18.9745   -27.8182 H            1 NAP500   0.0000
    65 H2D         33.0464    18.6803   -31.6901 H            1 NAP500   0.0000
    66 H18         32.5690    16.7854   -30.1091 H            1 NAP500   0.0000
    67 H1D         30.2529    18.6349   -31.1338 H            1 NAP500   0.0000
    68 H2N         32.8614    19.2403   -33.3903 H            1 NAP500   0.0000
    69 H7N1        34.8308    20.6131   -36.0540 H            1 NAP500   0.0000
    70 H7N2        34.2297    20.2007   -34.4828 H            1 NAP500   0.0000
    71 H4N         30.3397    19.7367   -36.6358 H            1 NAP500   0.0000
    72 H5N         28.4638    19.7096   -35.1541 H            1 NAP500   0.0000
    73 H6N         28.8109    19.4503   -32.8081 H            1 NAP500   0.0000
@<TRIPOS>BOND
     1    1    2      ar
     2    1    3      ar
     3    1    4       1
     4    1   23       1
     5    4    5       1
     6    5    6       1
     7    6    7       1
     8    6    8       1
     9    7   12       1
    10    8    9       1
    11    8   10       1
    12   10   11       1
    13   10   12       1
    14   11   45       1
    15   12   13       1
    16   13   14       1
    17   13   22       1
    18   14   15       2
    19   15   16       1
    20   16   17      ar
    21   16   22      ar
    22   17   18       1
    23   17   19      ar
    24   19   20      ar
    25   20   21      ar
    26   21   22      ar
    27   23   24       1
    28   24   25      ar
    29   24   26      ar
    30   24   27       1
    31   27   28       1
    32   28   29       1
    33   29   30       1
    34   29   31       1
    35   30   35       1
    36   31   32       1
    37   31   33       1
    38   33   34       1
    39   33   35       1
    40   35   36       1
    41   36   37      ar
    42   36   44      ar
    43   37   38      ar
    44   38   39       1
    45   38   42      ar
    46   39   40       2
    47   39   41      am
    48   42   43      ar
    49   43   44      ar
    50   45   46      ar
    51   45   47      ar
    52   45   48      ar
    53   43   72       1
    54    5   49       1
    55    5   50       1
    56    6   51       1
    57    8   52       1
    58    9   53       1
    59   10   54       1
    60   12   55       1
    61   14   56       1
    62   18   57       1
    63   18   58       1
    64   20   59       1
    65   44   73       1
    66   28   60       1
    67   28   61       1
    68   29   62       1
    69   31   63       1
    70   32   64       1
    71   33   65       1
    72   34   66       1
    73   35   67       1
    74   37   68       1
    75   41   69       1
    76   41   70       1
    77   42   71       1
@<TRIPOS>SUBSTRUCTURE
     1 NAP500      1 GROUP             4 B     NAP     0 **** NAP B 500
