@<TRIPOS>MOLECULE
4py6_R78_2_ligand
   56    59     1     0     0
SMALL
NO_CHARGES


@<TRIPOS>ATOM
     1 N1         -21.6260   -42.4680   -68.8500 N.ar         1 R781401   0.0000
     2 N3         -18.0120   -44.0520   -69.9880 N.pl3        1 R781401   0.0000
     3 C4         -20.4840   -41.6380   -68.8430 C.ar         1 R781401   0.0000
     4 C5         -16.7420   -43.3770   -69.5180 C.3          1 R781401   0.0000
     5 C6         -16.8750   -41.9780   -69.3680 C.2          1 R781401   0.0000
     6 C7         -22.7070   -45.7940   -69.6410 C.ar         1 R781401   0.0000
     7 C8         -18.0140   -45.2760   -70.8760 C.3          1 R781401   0.0000
     8 C10        -16.8750   -44.1040   -67.0520 C.3          1 R781401   0.0000
     9 C13        -16.6790   -46.7710   -71.9770 C.2          1 R781401   0.0000
    10 C15        -17.9340   -46.5840   -70.1130 C.3          1 R781401   0.0000
    11 C17        -24.0650   -47.5060   -70.7240 C.ar         1 R781401   0.0000
    12 C20        -21.7150   -46.7610   -69.3990 C.ar         1 R781401   0.0000
    13 C21        -23.2050   -49.7460   -70.9860 C.3          1 R781401   0.0000
    14 C18        -23.0440   -48.4410   -70.5300 C.ar         1 R781401   0.0000
    15 C16        -23.8920   -46.1790   -70.2960 C.ar         1 R781401   0.0000
    16 O3         -24.8710   -45.2280   -70.4300 O.3          1 R781401   0.0000
    17 C31        -25.3250   -45.0210   -71.7760 C.3          1 R781401   0.0000
    18 C19        -21.8670   -48.0680   -69.8720 C.ar         1 R781401   0.0000
    19 N5         -22.6510   -44.5170   -69.1920 N.pl3        1 R781401   0.0000
    20 C1         -21.5330   -43.7570   -69.2330 C.ar         1 R781401   0.0000
    21 N2         -20.3260   -44.2430   -69.6000 N.ar         1 R781401   0.0000
    22 C2         -19.1950   -43.4990   -69.6280 C.ar         1 R781401   0.0000
    23 C14        -17.2870   -47.4450   -70.9950 C.2          1 R781401   0.0000
    24 C12        -16.8590   -45.3940   -71.8480 C.3          1 R781401   0.0000
    25 C9         -16.0190   -44.0470   -68.3230 C.3          1 R781401   0.0000
    26 O1         -15.8610   -41.2730   -69.3950 O.2          1 R781401   0.0000
    27 N4         -18.1030   -41.3950   -69.2550 N.am         1 R781401   0.0000
    28 C11        -18.1850   -39.9020   -69.1490 C.3          1 R781401   0.0000
    29 C3         -19.2410   -42.1490   -69.2470 C.ar         1 R781401   0.0000
    30 H1         -20.5609   -40.6850   -68.5499 H            1 R781401   0.0000
    31 H2         -16.1071   -43.4845   -70.2830 H            1 R781401   0.0000
    32 H3         -18.8640   -45.2757   -71.4028 H            1 R781401   0.0000
    33 H4         -16.3559   -44.5452   -66.3200 H            1 R781401   0.0000
    34 H5         -17.1206   -43.1755   -66.7736 H            1 R781401   0.0000
    35 H6         -17.7068   -44.6285   -67.2336 H            1 R781401   0.0000
    36 H7         -16.1586   -47.2019   -72.7142 H            1 R781401   0.0000
    37 H8         -18.8481   -46.9230   -69.8906 H            1 R781401   0.0000
    38 H9         -17.4056   -46.4735   -69.2712 H            1 R781401   0.0000
    39 H10        -24.9180   -47.7815   -71.1672 H            1 R781401   0.0000
    40 H11        -20.8944   -46.5119   -68.8846 H            1 R781401   0.0000
    41 H12        -22.3874   -50.2787   -70.7674 H            1 R781401   0.0000
    42 H13        -24.0003   -50.1586   -70.5418 H            1 R781401   0.0000
    43 H14        -23.3429   -49.7384   -71.9764 H            1 R781401   0.0000
    44 H15        -26.0341   -44.3159   -71.7839 H            1 R781401   0.0000
    45 H16        -24.5570   -44.7278   -72.3454 H            1 R781401   0.0000
    46 H17        -25.7001   -45.8751   -72.1363 H            1 R781401   0.0000
    47 H18        -21.1346   -48.7360   -69.7400 H            1 R781401   0.0000
    48 H19        -23.4823   -44.1141   -68.8091 H            1 R781401   0.0000
    49 H20        -17.2780   -48.4410   -70.9056 H            1 R781401   0.0000
    50 H21        -16.0369   -44.9593   -71.4803 H            1 R781401   0.0000
    51 H22        -17.0896   -44.9799   -72.7286 H            1 R781401   0.0000
    52 H23        -15.1879   -43.5280   -68.1231 H            1 R781401   0.0000
    53 H24        -15.7742   -44.9810   -68.5831 H            1 R781401   0.0000
    54 H25        -19.1430   -39.6253   -69.0729 H            1 R781401   0.0000
    55 H26        -17.6847   -39.5974   -68.3385 H            1 R781401   0.0000
    56 H27        -17.7821   -39.4873   -69.9649 H            1 R781401   0.0000
@<TRIPOS>BOND
     1    1    3      ar
     2    1   20      ar
     3    2    4       1
     4    2    7       1
     5    2   22       1
     6    3   29      ar
     7    4    5       1
     8    4   25       1
     9    5   26       2
    10    5   27      am
    11    6   12      ar
    12    6   15      ar
    13    6   19       1
    14    7   10       1
    15    7   24       1
    16    8   25       1
    17    9   23       2
    18    9   24       1
    19   10   23       1
    20   11   14      ar
    21   11   15      ar
    22   12   18      ar
    23   13   14       1
    24   14   18      ar
    25   15   16       1
    26   16   17       1
    27   19   20       1
    28   20   21      ar
    29   21   22      ar
    30   22   29      ar
    31   27   28       1
    32   27   29       1
    33    3   30       1
    34    4   31       1
    35    7   32       1
    36    8   33       1
    37    8   34       1
    38    8   35       1
    39    9   36       1
    40   10   37       1
    41   10   38       1
    42   11   39       1
    43   12   40       1
    44   13   41       1
    45   13   42       1
    46   13   43       1
    47   17   44       1
    48   17   45       1
    49   17   46       1
    50   18   47       1
    51   19   48       1
    52   23   49       1
    53   24   50       1
    54   24   51       1
    55   25   52       1
    56   25   53       1
    57   28   54       1
    58   28   55       1
    59   28   56       1
@<TRIPOS>SUBSTRUCTURE
     1 R781401     1 GROUP             4 B     R78     0 **** R78 B1401
