@<TRIPOS>MOLECULE
3in1_ADP_1_ligand
   39    41     1     0     0
SMALL
NO_CHARGES


@<TRIPOS>ATOM
     1 PB          60.7080    72.1440    12.6320 P.3          1 ADP510   0.0000
     2 O1B         61.4360    72.8740    11.5690 O.co2        1 ADP510   0.0000
     3 O2B         61.6700    71.5290    13.5860 O.co2        1 ADP510  -1.0000
     4 O3B         59.6070    73.0590    13.3520 O.co2        1 ADP510  -1.0000
     5 PA          60.1470    69.7310    11.1310 P.3          1 ADP510   0.0000
     6 O1A         60.0470    69.9680     9.6820 O.co2        1 ADP510   0.0000
     7 O2A         61.5480    69.2830    11.4160 O.co2        1 ADP510  -1.0000
     8 O3A         59.7720    71.0050    12.0160 O.3          1 ADP510   0.0000
     9 O5'         58.9670    68.7460    11.7860 O.3          1 ADP510   0.0000
    10 C5'         58.8260    67.3900    11.3180 C.3          1 ADP510   0.0000
    11 C4'         57.3860    66.9740    11.4850 C.3          1 ADP510   0.0000
    12 O4'         57.0620    67.1540    12.8760 O.3          1 ADP510   0.0000
    13 C3'         56.3540    67.8410    10.7530 C.3          1 ADP510   0.0000
    14 O3'         56.2490    67.5350     9.3560 O.3          1 ADP510   0.0000
    15 C2'         55.1040    67.5650    11.6470 C.3          1 ADP510   0.0000
    16 O2'         54.4420    66.3430    11.2900 O.3          1 ADP510   0.0000
    17 C1'         55.7280    67.4980    13.0820 C.3          1 ADP510   0.0000
    18 N9          55.5580    68.8000    13.7180 N.pl3        1 ADP510   0.0000
    19 C8          56.5200    69.7090    14.0680 C.2          1 ADP510   0.0000
    20 N7          56.1370    70.7470    14.7220 N.2          1 ADP510   0.0000
    21 C5          54.8380    70.5590    14.8390 C.ar         1 ADP510   0.0000
    22 C6          53.8870    71.3630    15.4650 C.ar         1 ADP510   0.0000
    23 N6          54.1530    72.5180    16.0770 N.pl3        1 ADP510   0.0000
    24 N1          52.5810    70.9250    15.4430 N.ar         1 ADP510   0.0000
    25 C2          52.2720    69.7150    14.8100 C.ar         1 ADP510   0.0000
    26 N3          53.1120    68.8880    14.1910 N.ar         1 ADP510   0.0000
    27 C4          54.4020    69.3750    14.2420 C.ar         1 ADP510   0.0000
    28 H5'1        59.4161    66.7853    11.8530 H            1 ADP510   0.0000
    29 H5'2        59.0825    67.3378    10.3529 H            1 ADP510   0.0000
    30 H4'         57.2734    66.0144    11.2273 H            1 ADP510   0.0000
    31 H3'         56.6137    68.8016    10.8524 H            1 ADP510   0.0000
    32 H5          55.5641    68.1297     8.9351 H            1 ADP510   0.0000
    33 H2'         54.4642    68.3312    11.5872 H            1 ADP510   0.0000
    34 H7          54.1384    66.3940    10.3386 H            1 ADP510   0.0000
    35 H1'         55.2712    66.7908    13.6216 H            1 ADP510   0.0000
    36 H9          57.4802    69.5712    13.8250 H            1 ADP510   0.0000
    37 H10         53.4142    73.0392    16.5043 H            1 ADP510   0.0000
    38 H11         55.0912    72.8627    16.1085 H            1 ADP510   0.0000
    39 H12         51.3105    69.4405    14.8245 H            1 ADP510   0.0000
@<TRIPOS>BOND
     1    1    2      ar
     2    1    3      ar
     3    1    4      ar
     4    1    8       1
     5    5    6      ar
     6    5    7      ar
     7    5    8       1
     8    5    9       1
     9    9   10       1
    10   10   11       1
    11   11   12       1
    12   11   13       1
    13   12   17       1
    14   13   14       1
    15   13   15       1
    16   15   16       1
    17   15   17       1
    18   17   18       1
    19   18   19       1
    20   18   27       1
    21   19   20       2
    22   20   21       1
    23   21   22      ar
    24   21   27      ar
    25   22   23       1
    26   22   24      ar
    27   24   25      ar
    28   25   26      ar
    29   26   27      ar
    30   25   39       1
    31   23   38       1
    32   23   37       1
    33   10   28       1
    34   10   29       1
    35   11   30       1
    36   13   31       1
    37   14   32       1
    38   15   33       1
    39   16   34       1
    40   17   35       1
    41   19   36       1
@<TRIPOS>SUBSTRUCTURE
     1 ADP510      1 GROUP             4 A     ADP     0 **** ADP A 510
