@<TRIPOS>MOLECULE
4qii_2NE_12_ligand
   93    96     1     0     0
SMALL
NO_CHARGES


@<TRIPOS>ATOM
     1 C01        192.0260    27.9650   263.4220 C.3          1 2NE401   0.0000
     2 C02        193.2990    28.4620   262.6720 C.3          1 2NE401   0.0000
     3 C03        193.6410    27.4640   261.5140 C.3          1 2NE401   0.0000
     4 C04        194.4840    28.5140   263.6590 C.3          1 2NE401   0.0000
     5 O05        194.2490    29.6390   264.4850 O.3          1 2NE401   0.0000
     6 P06        195.4980    30.1670   265.3370 P.3          1 2NE401   0.0000
     7 O07        194.9880    31.1120   266.4140 O.co2        1 2NE401   0.0000
     8 O08        196.1640    28.9830   266.0050 O.co2        1 2NE401  -1.0000
     9 O09        196.5880    30.9370   264.4550 O.3          1 2NE401   0.0000
    10 P10        196.3390    32.2190   263.5230 P.3          1 2NE401   0.0000
    11 O11        196.8730    33.4500   264.2050 O.co2        1 2NE401   0.0000
    12 O12        194.8620    32.3820   263.2740 O.co2        1 2NE401  -1.0000
    13 O13        197.0850    32.0090   262.1550 O.3          1 2NE401   0.0000
    14 C14        198.4940    32.0900   262.1510 C.3          1 2NE401   0.0000
    15 C15        198.9440    32.8680   260.8850 C.3          1 2NE401   0.0000
    16 O16        198.6430    32.2010   259.8410 O.3          1 2NE401   0.0000
    17 C17        197.6150    32.8550   259.1070 C.3          1 2NE401   0.0000
    18 C18        197.0500    33.7030   259.9300 C.3          1 2NE401   0.0000
    19 O19        196.4180    34.8490   259.1600 O.3          1 2NE401   0.0000
    20 C20        198.1870    34.2090   260.7880 C.3          1 2NE401   0.0000
    21 O21        198.9200    35.1220   260.0750 O.3          1 2NE401   0.0000
    22 P22        199.7760    36.2580   260.7690 P.3          1 2NE401   0.0000
    23 O23        200.9750    35.6430   261.4420 O.co2        1 2NE401   0.0000
    24 O24        198.9340    36.9650   261.7950 O.co2        1 2NE401  -1.0000
    25 O25        200.2350    37.2480   259.7270 O.co2        1 2NE401  -1.0000
    26 N26        196.6920    31.8950   258.5690 N.pl3        1 2NE401   0.0000
    27 C27        196.1700    30.8130   259.1880 C.2          1 2NE401   0.0000
    28 N28        195.3360    30.1980   258.3240 N.2          1 2NE401   0.0000
    29 C29        195.3410    30.9030   257.1650 C.ar         1 2NE401   0.0000
    30 C30        194.6500    30.6930   255.9900 C.ar         1 2NE401   0.0000
    31 N31        193.7260    29.7310   255.4660 N.pl3        1 2NE401   0.0000
    32 N32        194.8260    31.5330   254.9730 N.ar         1 2NE401   0.0000
    33 C33        195.6720    32.5850   255.1460 C.ar         1 2NE401   0.0000
    34 N34        196.3520    32.8170   256.2960 N.ar         1 2NE401   0.0000
    35 C35        196.1850    31.9470   257.3150 C.ar         1 2NE401   0.0000
    36 C36        193.0310    29.8680   262.0850 C.3          1 2NE401   0.0000
    37 O37        194.2210    30.4110   261.6420 O.3          1 2NE401   0.0000
    38 C38        192.0650    29.7710   260.9250 C.2          1 2NE401   0.0000
    39 O39        190.8720    29.6780   261.1260 O.2          1 2NE401   0.0000
    40 N40        192.6140    29.8310   259.5940 N.am         1 2NE401   0.0000
    41 C41        191.6370    29.7780   258.5360 C.3          1 2NE401   0.0000
    42 C42        190.7910    28.5010   258.4540 C.3          1 2NE401   0.0000
    43 C43        189.9690    28.7410   257.1720 C.2          1 2NE401   0.0000
    44 O44        188.9490    29.3930   257.2110 O.2          1 2NE401   0.0000
    45 N45        190.4540    28.2760   255.9030 N.am         1 2NE401   0.0000
    46 C46        189.6730    28.5650   254.7200 C.3          1 2NE401   0.0000
    47 C47        188.2560    28.0300   254.8570 C.3          1 2NE401   0.0000
    48 S48        187.5610    27.9060   253.2160 S.3          1 2NE401   0.0000
    49 C49        188.7920    26.8680   252.4620 C.2          1 2NE401   0.0000
    50 O50        189.6820    26.3870   253.1210 O.2          1 2NE401   0.0000
    51 C51        188.7310    26.5390   250.9820 C.ar         1 2NE401   0.0000
    52 C52        187.5670    26.0170   250.4350 C.ar         1 2NE401   0.0000
    53 O53        186.4480    25.7940   251.2500 O.3          1 2NE401   0.0000
    54 C54        187.5120    25.7160   249.0830 C.ar         1 2NE401   0.0000
    55 C55        188.6200    25.9380   248.2790 C.ar         1 2NE401   0.0000
    56 C56        189.7830    26.4600   248.8280 C.ar         1 2NE401   0.0000
    57 C57        189.8380    26.7600   250.1780 C.ar         1 2NE401   0.0000
    58 H1         191.8056    28.6006   264.1619 H            1 2NE401   0.0000
    59 H2         191.2588    27.9192   262.7823 H            1 2NE401   0.0000
    60 H3         192.1970    27.0564   263.8030 H            1 2NE401   0.0000
    61 H4         194.4575    27.7807   261.0312 H            1 2NE401   0.0000
    62 H5         193.8110    26.5557   261.8961 H            1 2NE401   0.0000
    63 H6         192.8728    27.4185   260.8754 H            1 2NE401   0.0000
    64 H7         195.3458    28.6201   263.1630 H            1 2NE401   0.0000
    65 H8         194.5163    27.6792   264.2086 H            1 2NE401   0.0000
    66 H9         198.8840    31.1693   262.1365 H            1 2NE401   0.0000
    67 H10        198.8058    32.5712   262.9703 H            1 2NE401   0.0000
    68 H11        199.9300    33.0318   260.9152 H            1 2NE401   0.0000
    69 H12        198.0295    33.3636   258.3524 H            1 2NE401   0.0000
    70 H13        196.3655    33.2405   260.4935 H            1 2NE401   0.0000
    71 H14        195.9916    35.4866   259.8016 H            1 2NE401   0.0000
    72 H15        197.8851    34.5550   261.6763 H            1 2NE401   0.0000
    73 H16        196.3675    30.5194   260.1233 H            1 2NE401   0.0000
    74 H17        193.3703    29.8338   254.5371 H            1 2NE401   0.0000
    75 H18        193.4369    28.9570   256.0293 H            1 2NE401   0.0000
    76 H19        195.7989    33.2207   254.3845 H            1 2NE401   0.0000
    77 H20        192.6411    30.4555   262.7941 H            1 2NE401   0.0000
    78 H21        194.4029    31.2620   262.1347 H            1 2NE401   0.0000
    79 H22        193.5958    29.9037   259.4183 H            1 2NE401   0.0000
    80 H23        192.1228    29.8777   257.6676 H            1 2NE401   0.0000
    81 H24        191.0127    30.5494   258.6591 H            1 2NE401   0.0000
    82 H25        190.1977    28.4065   259.2534 H            1 2NE401   0.0000
    83 H26        191.3675    27.6884   258.3689 H            1 2NE401   0.0000
    84 H27        191.3110    27.7647   255.8385 H            1 2NE401   0.0000
    85 H28        190.1088    28.1372   253.9281 H            1 2NE401   0.0000
    86 H29        189.6369    29.5553   254.5861 H            1 2NE401   0.0000
    87 H30        187.7081    28.6554   255.4125 H            1 2NE401   0.0000
    88 H31        188.2727    27.1282   255.2888 H            1 2NE401   0.0000
    89 H32        186.4886    26.0110   252.2253 H            1 2NE401   0.0000
    90 H33        186.6743    25.3392   248.6878 H            1 2NE401   0.0000
    91 H34        188.5810    25.7219   247.3034 H            1 2NE401   0.0000
    92 H35        190.5817    26.6194   248.2478 H            1 2NE401   0.0000
    93 H36        190.6761    27.1361   250.5731 H            1 2NE401   0.0000
@<TRIPOS>BOND
     1    1    2       1
     2    2    3       1
     3    2    4       1
     4    2   36       1
     5    4    5       1
     6    5    6       1
     7    6    7      ar
     8    6    8      ar
     9    6    9       1
    10    9   10       1
    11   10   11      ar
    12   10   12      ar
    13   10   13       1
    14   13   14       1
    15   14   15       1
    16   15   16       1
    17   15   20       1
    18   16   17       1
    19   17   18       1
    20   17   26       1
    21   18   19       1
    22   18   20       1
    23   20   21       1
    24   21   22       1
    25   22   23      ar
    26   22   24      ar
    27   22   25      ar
    28   26   27       1
    29   26   35       1
    30   27   28       2
    31   28   29       1
    32   29   30      ar
    33   29   35      ar
    34   30   31       1
    35   30   32      ar
    36   32   33      ar
    37   33   34      ar
    38   34   35      ar
    39   36   37       1
    40   36   38       1
    41   38   39       2
    42   38   40      am
    43   40   41       1
    44   41   42       1
    45   42   43       1
    46   43   44       2
    47   43   45      am
    48   45   46       1
    49   46   47       1
    50   47   48       1
    51   48   49       1
    52   49   50       2
    53   49   51       1
    54   51   52      ar
    55   51   57      ar
    56   52   53       1
    57   52   54      ar
    58   54   55      ar
    59   55   56      ar
    60   56   57      ar
    61    1   58       1
    62    1   59       1
    63    1   60       1
    64    3   61       1
    65    3   62       1
    66    3   63       1
    67    4   64       1
    68    4   65       1
    69   57   93       1
    70   56   92       1
    71   14   66       1
    72   14   67       1
    73   15   68       1
    74   17   69       1
    75   18   70       1
    76   19   71       1
    77   20   72       1
    78   55   91       1
    79   54   90       1
    80   27   73       1
    81   31   74       1
    82   31   75       1
    83   33   76       1
    84   36   77       1
    85   37   78       1
    86   40   79       1
    87   41   80       1
    88   41   81       1
    89   42   82       1
    90   42   83       1
    91   45   84       1
    92   46   85       1
    93   46   86       1
    94   47   87       1
    95   47   88       1
    96   53   89       1
@<TRIPOS>SUBSTRUCTURE
     1 2NE401      1 GROUP             4 L     2NE     0 **** 2NE L 401
