@<TRIPOS>MOLECULE
3pju_C2E_1_ligand
   70    76     1     0     0
SMALL
NO_CHARGES


@<TRIPOS>ATOM
     1 P1          29.1140    33.4840     4.7330 P.3          1 C2E2256   0.0000
     2 O2P         28.8680    32.8920     6.1040 O.3          1 C2E2256   0.0000
     3 O1P         28.4860    32.5680     3.7030 O.2          1 C2E2256   0.0000
     4 O5'         28.3360    34.8690     4.7310 O.3          1 C2E2256   0.0000
     5 C5'         28.0560    35.4950     3.5200 C.3          1 C2E2256   0.0000
     6 C4'         29.0650    36.5020     3.0370 C.3          1 C2E2256   0.0000
     7 O4'         28.6810    36.9540     1.7660 O.3          1 C2E2256   0.0000
     8 C3'         29.1450    37.7670     3.8590 C.3          1 C2E2256   0.0000
     9 O3'         30.3150    38.4630     3.5660 O.3          1 C2E2256   0.0000
    10 C2'         28.0330    38.4800     3.3750 C.3          1 C2E2256   0.0000
    11 O2'         28.0920    39.9030     3.5380 O.3          1 C2E2256   0.0000
    12 C1'         27.9360    38.1220     1.9710 C.3          1 C2E2256   0.0000
    13 N9          26.4970    37.9580     1.3460 N.pl3        1 C2E2256   0.0000
    14 C8          25.4030    37.5840     2.0440 C.2          1 C2E2256   0.0000
    15 N7          24.3820    37.4890     1.1790 N.2          1 C2E2256   0.0000
    16 C5          24.8450    37.7870    -0.0590 C.2          1 C2E2256   0.0000
    17 C6          24.2240    37.8420    -1.3090 C.2          1 C2E2256   0.0000
    18 O6          22.8660    37.5800    -1.4450 O.2          1 C2E2256   0.0000
    19 N1          24.9740    38.1950    -2.3740 N.pl3        1 C2E2256   0.0000
    20 C2          26.2860    38.4770    -2.2530 C.2          1 C2E2256   0.0000
    21 N2          27.0180    38.8320    -3.4330 N.pl3        1 C2E2256   0.0000
    22 N3          26.9130    38.4230    -1.0610 N.2          1 C2E2256   0.0000
    23 C4          26.2140    38.0910     0.0420 C.2          1 C2E2256   0.0000
    24 P11         31.4350    38.5310     4.6700 P.3          1 C2E2256   0.0000
    25 O21         30.8090    38.5990     6.0450 O.2          1 C2E2256   0.0000
    26 O11         32.4010    39.6740     4.4880 O.3          1 C2E2256   0.0000
    27 O5A         32.3780    37.3130     4.5310 O.3          1 C2E2256   0.0000
    28 C5A         31.9660    36.3290     5.3590 C.3          1 C2E2256   0.0000
    29 C4A         32.4760    35.0500     4.8860 C.3          1 C2E2256   0.0000
    30 O4A         33.7570    34.8980     5.5700 O.3          1 C2E2256   0.0000
    31 C3A         31.4870    34.0790     5.4110 C.3          1 C2E2256   0.0000
    32 O3A         30.6590    33.5220     4.4310 O.3          1 C2E2256   0.0000
    33 C2A         32.2880    33.1830     6.2630 C.3          1 C2E2256   0.0000
    34 O2A         32.5690    32.0200     5.6200 O.3          1 C2E2256   0.0000
    35 C1A         33.5320    34.0000     6.6120 C.3          1 C2E2256   0.0000
    36 N91         33.5320    34.5560     8.1020 N.pl3        1 C2E2256   0.0000
    37 C81         32.6950    35.4980     8.5710 C.2          1 C2E2256   0.0000
    38 N71         32.7980    35.5730     9.9100 N.2          1 C2E2256   0.0000
    39 C51         33.7110    34.6570    10.3010 C.2          1 C2E2256   0.0000
    40 C61         34.2340    34.2770    11.5380 C.2          1 C2E2256   0.0000
    41 O61         33.7770    34.8690    12.6960 O.2          1 C2E2256   0.0000
    42 N11         35.1580    33.2900    11.5830 N.pl3        1 C2E2256   0.0000
    43 C21         35.5890    32.6710    10.4770 C.2          1 C2E2256   0.0000
    44 N21         36.6160    31.6810    10.5560 N.pl3        1 C2E2256   0.0000
    45 N31         35.0890    33.0300     9.2810 N.2          1 C2E2256   0.0000
    46 C41         34.1640    34.0040     9.1520 C.2          1 C2E2256   0.0000
    47 H2P         29.6175    33.1450     6.7157 H            1 C2E2256   0.0000
    48 H5'1        27.1790    35.9656     3.6166 H            1 C2E2256   0.0000
    49 H5'2        27.9775    34.7840     2.8212 H            1 C2E2256   0.0000
    50 H4'         29.9682    36.0760     2.9848 H            1 C2E2256   0.0000
    51 H3'         29.0640    37.5769     4.8374 H            1 C2E2256   0.0000
    52 H2'         27.2157    38.1434     3.8427 H            1 C2E2256   0.0000
    53 H7          27.2611    40.3160     3.1651 H            1 C2E2256   0.0000
    54 H1'         28.3921    38.8482     1.4567 H            1 C2E2256   0.0000
    55 H9          25.3615    37.4094     3.0278 H            1 C2E2256   0.0000
    56 H10         24.5452    38.2486    -3.2758 H            1 C2E2256   0.0000
    57 H11         27.9929    39.0460    -3.3712 H            1 C2E2256   0.0000
    58 H12         26.5538    38.8657    -4.3181 H            1 C2E2256   0.0000
    59 H5A1        30.9664    36.3038     5.3750 H            1 C2E2256   0.0000
    60 H5A2        32.3098    36.5041     6.2816 H            1 C2E2256   0.0000
    61 H4A         32.5628    35.0130     3.8905 H            1 C2E2256   0.0000
    62 H3A         30.8886    34.5919     6.0265 H            1 C2E2256   0.0000
    63 H2A         31.7795    32.9824     7.1004 H            1 C2E2256   0.0000
    64 H18         31.8468    31.3537     5.8054 H            1 C2E2256   0.0000
    65 H1A         34.2931    33.3526     6.5717 H            1 C2E2256   0.0000
    66 H20         32.0872    36.0587     8.0087 H            1 C2E2256   0.0000
    67 H21         35.5304    33.0144    12.4692 H            1 C2E2256   0.0000
    68 H22         36.9333    31.2224     9.7259 H            1 C2E2256   0.0000
    69 H23         37.0175    31.4466    11.4414 H            1 C2E2256   0.0000
    70 H24         32.4873    39.8857     3.5145 H            1 C2E2256   0.0000
@<TRIPOS>BOND
     1    1    2       1
     2    1    3       2
     3    1    4       1
     4    1   32       1
     5    4    5       1
     6    5    6       1
     7    6    7       1
     8    6    8       1
     9    7   12       1
    10    8    9       1
    11    8   10       1
    12    9   24       1
    13   10   11       1
    14   10   12       1
    15   12   13       1
    16   13   14       1
    17   13   23       1
    18   14   15       2
    19   15   16       1
    20   16   17       1
    21   16   23       2
    22   17   18       2
    23   17   19       1
    24   19   20       1
    25   20   21       1
    26   20   22       2
    27   22   23       1
    28   24   25       2
    29   24   26       1
    30   24   27       1
    31   27   28       1
    32   28   29       1
    33   29   30       1
    34   29   31       1
    35   30   35       1
    36   31   32       1
    37   31   33       1
    38   33   34       1
    39   33   35       1
    40   35   36       1
    41   36   37       1
    42   36   46       1
    43   37   38       2
    44   38   39       1
    45   39   40       1
    46   39   46       2
    47   40   41       2
    48   40   42       1
    49   42   43       1
    50   43   44       1
    51   43   45       2
    52   45   46       1
    53    2   47       1
    54    5   48       1
    55    5   49       1
    56    6   50       1
    57    8   51       1
    58   10   52       1
    59   11   53       1
    60   12   54       1
    61   14   55       1
    62   19   56       1
    63   21   57       1
    64   21   58       1
    65   44   69       1
    66   28   59       1
    67   28   60       1
    68   29   61       1
    69   31   62       1
    70   33   63       1
    71   34   64       1
    72   35   65       1
    73   37   66       1
    74   42   67       1
    75   44   68       1
    76   26   70       1
@<TRIPOS>SUBSTRUCTURE
     1 C2E2256     1 GROUP             4 A     C2E     0 **** C2E A2256
