@<TRIPOS>MOLECULE
3exn_ACO_1_ligand
   52    51     1     0     0
SMALL
NO_CHARGES


@<TRIPOS>ATOM
     1 O5B         11.3240     9.1300     7.9040 O.co2        1 ACO1001   0.0000
     2 P1A         11.7250     7.7950     8.7900 P.3          1 ACO1001   0.0000
     3 O1A         12.9510     8.1460     9.6330 O.co2        1 ACO1001  -1.0000
     4 O2A         11.5940     6.5810     7.8840 O.co2        1 ACO1001  -1.0000
     5 O3A         10.4320     7.7680     9.7810 O.3          1 ACO1001   0.0000
     6 P2A         10.2680     6.7660    11.0100 P.3          1 ACO1001   0.0000
     7 O4A         10.3240     7.6530    12.2580 O.co2        1 ACO1001   0.0000
     8 O5A         11.2690     5.6370    10.9650 O.co2        1 ACO1001  -1.0000
     9 O6A          8.7310     6.2670    10.6910 O.3          1 ACO1001   0.0000
    10 CBP          6.4880     6.7670    11.6040 C.3          1 ACO1001   0.0000
    11 CCP          7.5970     7.1500    10.6070 C.3          1 ACO1001   0.0000
    12 CDP          6.0030     5.3960    11.1700 C.3          1 ACO1001   0.0000
    13 CEP          5.3120     7.7370    11.5410 C.3          1 ACO1001   0.0000
    14 CAP          7.0650     6.7150    13.0450 C.3          1 ACO1001   0.0000
    15 OAP          7.5370     8.0240    13.4590 O.3          1 ACO1001   0.0000
    16 C9P          6.0540     6.2820    14.0890 C.2          1 ACO1001   0.0000
    17 O9P          5.9260     5.1100    14.4130 O.2          1 ACO1001   0.0000
    18 N8P          5.3340     7.2470    14.6560 N.am         1 ACO1001   0.0000
    19 C7P          4.3760     7.0000    15.7510 C.3          1 ACO1001   0.0000
    20 C6P          3.2130     6.0880    15.3630 C.3          1 ACO1001   0.0000
    21 C5P          2.4430     6.6550    14.1790 C.2          1 ACO1001   0.0000
    22 O5P          2.1470     7.8670    14.1010 O.2          1 ACO1001   0.0000
    23 N4P          2.1190     5.7590    13.2340 N.am         1 ACO1001   0.0000
    24 C3P          1.3690     6.1400    12.0580 C.3          1 ACO1001   0.0000
    25 C2P         -0.1160     5.9820    12.2720 C.3          1 ACO1001   0.0000
    26 S1P         -1.0730     6.3920    10.8050 S.3          1 ACO1001   0.0000
    27 C           -0.8190     4.9280     9.9930 C.2          1 ACO1001   0.0000
    28 O           -0.1360     4.0840    10.5120 O.2          1 ACO1001   0.0000
    29 CH3         -1.4430     4.6840     8.6320 C.3          1 ACO1001   0.0000
    30 HCP1         7.2248     7.1092     9.6797 H            1 ACO1001   0.0000
    31 HCP2         7.8995     8.0826    10.8041 H            1 ACO1001   0.0000
    32 HDP1         5.2756     5.0899    11.7842 H            1 ACO1001   0.0000
    33 HDP2         5.6506     5.4475    10.2356 H            1 ACO1001   0.0000
    34 HDP3         6.7632     4.7472    11.2042 H            1 ACO1001   0.0000
    35 HEP1         4.6137     7.4575    12.2000 H            1 ACO1001   0.0000
    36 HEP2         5.6286     8.6595    11.7619 H            1 ACO1001   0.0000
    37 HEP3         4.9229     7.7298    10.6198 H            1 ACO1001   0.0000
    38 HAP          7.8348     6.0769    13.0596 H            1 ACO1001   0.0000
    39 H10          8.4987     8.1272    13.2052 H            1 ACO1001   0.0000
    40 H8P          5.4475     8.1836    14.3244 H            1 ACO1001   0.0000
    41 H7P1         4.0017     7.8791    16.0460 H            1 ACO1001   0.0000
    42 H7P2         4.8688     6.5757    16.5107 H            1 ACO1001   0.0000
    43 H6P1         2.5935     5.9990    16.1430 H            1 ACO1001   0.0000
    44 H6P2         3.5720     5.1874    15.1180 H            1 ACO1001   0.0000
    45 H4P          2.4026     4.8066    13.3456 H            1 ACO1001   0.0000
    46 H3P1         1.6500     5.5615    11.2922 H            1 ACO1001   0.0000
    47 H3P2         1.5661     7.0965    11.8431 H            1 ACO1001   0.0000
    48 H2P1        -0.3982     6.5856    13.0177 H            1 ACO1001   0.0000
    49 H2P2        -0.3044     5.0323    12.5223 H            1 ACO1001   0.0000
    50 HH31        -1.1875     3.7736     8.3065 H            1 ACO1001   0.0000
    51 HH32        -2.4384     4.7443     8.7060 H            1 ACO1001   0.0000
    52 HH33        -1.1144     5.3732     7.9863 H            1 ACO1001   0.0000
@<TRIPOS>BOND
     1    1    2      ar
     2    2    3      ar
     3    2    4      ar
     4    2    5       1
     5    5    6       1
     6    6    7      ar
     7    6    8      ar
     8    6    9       1
     9    9   11       1
    10   10   11       1
    11   10   12       1
    12   10   13       1
    13   10   14       1
    14   14   15       1
    15   14   16       1
    16   16   17       2
    17   16   18      am
    18   18   19       1
    19   19   20       1
    20   20   21       1
    21   21   22       2
    22   21   23      am
    23   23   24       1
    24   24   25       1
    25   25   26       1
    26   26   27       1
    27   27   28       2
    28   27   29       1
    29   29   52       1
    30   29   51       1
    31   29   50       1
    32   11   30       1
    33   11   31       1
    34   12   32       1
    35   12   33       1
    36   12   34       1
    37   13   35       1
    38   13   36       1
    39   13   37       1
    40   14   38       1
    41   15   39       1
    42   18   40       1
    43   19   41       1
    44   19   42       1
    45   20   43       1
    46   20   44       1
    47   23   45       1
    48   24   46       1
    49   24   47       1
    50   25   48       1
    51   25   49       1
@<TRIPOS>SUBSTRUCTURE
     1 ACO1001     1 GROUP             4 A     ACO     0 **** ACO A1001
