@<TRIPOS>MOLECULE
3my0_LDN_6_ligand
   54    59     1     0     0
SMALL
NO_CHARGES


@<TRIPOS>ATOM
     1 CAA         68.9760   -43.9530   -59.1860 C.ar         1 LDN600   0.0000
     2 CAB         68.7980   -44.7330   -58.0470 C.ar         1 LDN600   0.0000
     3 CAC         68.6790   -47.7810   -61.9820 C.ar         1 LDN600   0.0000
     4 CAD         68.4720   -48.6250   -60.9000 C.ar         1 LDN600   0.0000
     5 CAE         64.3670   -47.8570   -53.5340 C.ar         1 LDN600   0.0000
     6 CAF         64.9390   -50.2010   -53.3560 C.ar         1 LDN600   0.0000
     7 CAG         63.6260   -47.9600   -52.3600 C.ar         1 LDN600   0.0000
     8 CAH         64.2210   -50.2780   -52.1610 C.ar         1 LDN600   0.0000
     9 CAI         69.0110   -44.5550   -60.4470 C.ar         1 LDN600   0.0000
    10 CAJ         68.6030   -46.1060   -58.2040 C.ar         1 LDN600   0.0000
    11 CAK         65.5690   -47.8910   -56.1550 C.2          1 LDN600   0.0000
    12 CAL         68.9820   -49.9540   -58.1310 C.2          1 LDN600   0.0000
    13 CAM         66.7860   -49.8360   -55.4170 C.2          1 LDN600   0.0000
    14 CAN         61.7300   -48.4270   -48.3730 C.3          1 LDN600   0.0000
    15 CAO         62.8250   -50.6600   -48.3860 C.3          1 LDN600   0.0000
    16 CAP         62.3360   -48.0400   -49.7430 C.3          1 LDN600   0.0000
    17 CAQ         62.4770   -50.5970   -49.8760 C.3          1 LDN600   0.0000
    18 NAR         68.8640   -46.4840   -61.8170 N.ar         1 LDN600   0.0000
    19 NAS         66.3340   -47.8290   -57.2530 N.2          1 LDN600   0.0000
    20 NAT         68.5240   -50.4350   -56.9660 N.2          1 LDN600   0.0000
    21 NAU         62.6730   -49.3630   -47.7050 N.4          1 LDN600   1.0000
    22 CAV         65.0070   -48.9930   -54.0530 C.ar         1 LDN600   0.0000
    23 CAW         65.7660   -48.9070   -55.2160 C.2          1 LDN600   0.0000
    24 CAX         63.5530   -49.1700   -51.6580 C.ar         1 LDN600   0.0000
    25 CAY         68.4300   -48.0840   -59.6130 C.ar         1 LDN600   0.0000
    26 CAZ         68.2580   -48.8860   -58.4810 C.2          1 LDN600   0.0000
    27 CBA         68.8420   -45.9350   -60.5970 C.ar         1 LDN600   0.0000
    28 CBB         68.6280   -46.7210   -59.4670 C.ar         1 LDN600   0.0000
    29 CBC         67.3150   -48.7200   -57.4900 C.2          1 LDN600   0.0000
    30 NBD         62.8110   -49.2710   -50.4590 N.pl3        1 LDN600   0.0000
    31 NBE         67.5700   -49.7550   -56.5730 N.pl3        1 LDN600   0.0000
    32 HAA         69.0789   -42.9618   -59.1021 H            1 LDN600   0.0000
    33 HAB         68.8096   -44.3190   -57.1368 H            1 LDN600   0.0000
    34 HAC         68.6883   -48.1631   -62.9061 H            1 LDN600   0.0000
    35 HAD         68.3544   -49.6081   -61.0400 H            1 LDN600   0.0000
    36 HAE         64.4428   -46.9781   -54.0050 H            1 LDN600   0.0000
    37 HAF         65.4045   -51.0110   -53.7127 H            1 LDN600   0.0000
    38 HAG         63.1388   -47.1587   -52.0128 H            1 LDN600   0.0000
    39 HAH         64.1875   -51.1432   -51.6606 H            1 LDN600   0.0000
    40 HAI         69.1597   -43.9881   -61.2572 H            1 LDN600   0.0000
    41 HAJ         68.4407   -46.6688   -57.3935 H            1 LDN600   0.0000
    42 HAK         64.8542   -47.2076   -56.0068 H            1 LDN600   0.0000
    43 HAL         69.7443   -50.3340   -58.6549 H            1 LDN600   0.0000
    44 HAM         66.9556   -50.5534   -54.7413 H            1 LDN600   0.0000
    45 HAN1        60.8453   -48.8736   -48.5066 H            1 LDN600   0.0000
    46 HAN2        61.6087   -47.6084   -47.8115 H            1 LDN600   0.0000
    47 HAO1        63.7745   -50.9597   -48.2928 H            1 LDN600   0.0000
    48 HAO2        62.2210   -51.3241   -47.9454 H            1 LDN600   0.0000
    49 HAP1        63.1081   -47.4207   -49.6007 H            1 LDN600   0.0000
    50 HAP2        61.6396   -47.5829   -50.2962 H            1 LDN600   0.0000
    51 HAQ1        61.4973   -50.7635   -49.9880 H            1 LDN600   0.0000
    52 HAQ2        62.9928   -51.3038   -50.3601 H            1 LDN600   0.0000
    53 HAU1        62.3404   -49.5335   -46.7775 H            1 LDN600   0.0000
    54 HAU2        63.5709   -48.9250   -47.6619 H            1 LDN600   0.0000
@<TRIPOS>BOND
     1    1    2      ar
     2    1    9      ar
     3    2   10      ar
     4    3    4      ar
     5    3   18      ar
     6    4   25      ar
     7    5    7      ar
     8    5   22      ar
     9    6    8      ar
    10    6   22      ar
    11    7   24      ar
    12    8   24      ar
    13    9   27      ar
    14   10   28      ar
    15   11   19       2
    16   11   23       1
    17   12   20       2
    18   12   26       1
    19   13   23       2
    20   13   31       1
    21   14   16       1
    22   14   21       1
    23   15   17       1
    24   15   21       1
    25   16   30       1
    26   17   30       1
    27   18   27      ar
    28   19   29       1
    29   20   31       1
    30   22   23       1
    31   24   30       1
    32   25   26       1
    33   25   28      ar
    34   26   29       2
    35   27   28      ar
    36   29   31       1
    37    1   32       1
    38    2   33       1
    39    3   34       1
    40    4   35       1
    41    5   36       1
    42    6   37       1
    43    7   38       1
    44    8   39       1
    45    9   40       1
    46   10   41       1
    47   11   42       1
    48   12   43       1
    49   13   44       1
    50   14   45       1
    51   14   46       1
    52   15   47       1
    53   15   48       1
    54   16   49       1
    55   16   50       1
    56   17   51       1
    57   17   52       1
    58   21   53       1
    59   21   54       1
@<TRIPOS>SUBSTRUCTURE
     1 LDN600      1 GROUP             4 F     LDN     0 **** LDN F 600
