@<TRIPOS>MOLECULE
4aox_FAD_1_ligand
   84    89     1     0     0
SMALL
NO_CHARGES


@<TRIPOS>ATOM
     1 PA           2.6060    13.5130   -19.3770 P.3          1 FAD1001   0.0000
     2 O1A          3.2120    13.2870   -20.7290 O.co2        1 FAD1001   0.0000
     3 O2A          3.3360    13.0800   -18.1200 O.co2        1 FAD1001  -1.0000
     4 O5B          2.4040    15.0810   -19.1410 O.3          1 FAD1001   0.0000
     5 C5B          2.0590    15.4810   -17.8110 C.3          1 FAD1001   0.0000
     6 C4B          2.7050    16.8030   -17.4710 C.3          1 FAD1001   0.0000
     7 O4B          2.1220    17.2670   -16.2590 O.3          1 FAD1001   0.0000
     8 C3B          4.1860    16.6670   -17.1960 C.3          1 FAD1001   0.0000
     9 O3B          4.8120    17.6940   -17.9610 O.3          1 FAD1001   0.0000
    10 C2B          4.3730    16.9770   -15.7260 C.3          1 FAD1001   0.0000
    11 O2B          5.5440    17.7650   -15.5200 O.3          1 FAD1001   0.0000
    12 C1B          3.1570    17.8340   -15.4510 C.3          1 FAD1001   0.0000
    13 N9A          2.7730    17.8750   -14.0290 N.pl3        1 FAD1001   0.0000
    14 C8A          2.5430    16.8270   -13.1990 C.2          1 FAD1001   0.0000
    15 N7A          2.1990    17.2950   -11.9680 N.2          1 FAD1001   0.0000
    16 C5A          2.2310    18.6460   -11.9990 C.ar         1 FAD1001   0.0000
    17 C6A          1.9770    19.7620   -11.0690 C.ar         1 FAD1001   0.0000
    18 N6A          1.6290    19.5390    -9.7810 N.pl3        1 FAD1001   0.0000
    19 N1A          2.0950    21.0330   -11.5310 N.ar         1 FAD1001   0.0000
    20 C2A          2.4490    21.2930   -12.7990 C.ar         1 FAD1001   0.0000
    21 N3A          2.6960    20.3290   -13.6930 N.ar         1 FAD1001   0.0000
    22 C4A          2.5980    19.0210   -13.3630 C.ar         1 FAD1001   0.0000
    23 N1           1.8240     5.8300   -23.7110 N.2          1 FAD1001   0.0000
    24 C2           1.1090     5.3950   -24.7950 C.2          1 FAD1001   0.0000
    25 O2          -0.1470     5.4580   -24.8210 O.2          1 FAD1001   0.0000
    26 N3           1.7110     4.9000   -25.8930 N.pl3        1 FAD1001   0.0000
    27 C4           3.0400     4.7950   -26.0040 C.2          1 FAD1001   0.0000
    28 O4           3.6060     4.3490   -27.0180 O.2          1 FAD1001   0.0000
    29 C4X          3.8850     5.2180   -24.8950 C.2          1 FAD1001   0.0000
    30 N5           5.2220     5.0990   -25.0020 N.2          1 FAD1001   0.0000
    31 C5X          6.0070     5.4920   -23.9820 C.ar         1 FAD1001   0.0000
    32 C6           7.3920     5.3580   -24.1130 C.ar         1 FAD1001   0.0000
    33 C7           8.2180     5.7580   -23.0660 C.ar         1 FAD1001   0.0000
    34 C7M          9.7120     5.6310   -23.1910 C.3          1 FAD1001   0.0000
    35 C8           7.6140     6.3120   -21.8270 C.ar         1 FAD1001   0.0000
    36 C8M          8.4880     6.7500   -20.6920 C.3          1 FAD1001   0.0000
    37 C9           6.2350     6.4420   -21.7000 C.ar         1 FAD1001   0.0000
    38 C9A          5.3900     6.0590   -22.7300 C.ar         1 FAD1001   0.0000
    39 N10          3.9720     6.1900   -22.6220 N.pl3        1 FAD1001   0.0000
    40 C10          3.1840     5.7610   -23.7050 C.2          1 FAD1001   0.0000
    41 C1'          3.2860     6.6840   -21.4240 C.3          1 FAD1001   0.0000
    42 C2'          3.3410     8.1860   -21.2810 C.3          1 FAD1001   0.0000
    43 O2'          3.5010     8.4050   -19.8740 O.3          1 FAD1001   0.0000
    44 C3'          2.0360     8.7980   -21.8040 C.3          1 FAD1001   0.0000
    45 O3'          1.7840     8.3490   -23.1390 O.3          1 FAD1001   0.0000
    46 C4'          2.0330    10.3140   -21.8210 C.3          1 FAD1001   0.0000
    47 O4'          2.7300    10.8230   -20.6750 O.3          1 FAD1001   0.0000
    48 C5'          0.6030    10.8320   -21.7810 C.3          1 FAD1001   0.0000
    49 O5'          0.6350    12.2580   -21.7820 O.3          1 FAD1001   0.0000
    50 P           -0.0150    13.0490   -20.5480 P.3          1 FAD1001   0.0000
    51 O1P         -0.2080    14.4950   -20.9520 O.co2        1 FAD1001   0.0000
    52 O2P         -1.1760    12.1810   -20.1260 O.co2        1 FAD1001  -1.0000
    53 O3P          1.0980    12.9360   -19.3570 O.3          1 FAD1001   0.0000
    54 H5B1         2.3746    14.7851   -17.1659 H            1 FAD1001   0.0000
    55 H5B2         1.0656    15.5730   -17.7424 H            1 FAD1001   0.0000
    56 H4B          2.5486    17.4636   -18.2053 H            1 FAD1001   0.0000
    57 H3B          4.5300    15.7589   -17.4346 H            1 FAD1001   0.0000
    58 H5           4.4667    18.5855   -17.6678 H            1 FAD1001   0.0000
    59 H2B          4.3787    16.1474   -15.1676 H            1 FAD1001   0.0000
    60 H7           5.4596    18.6253   -16.0228 H            1 FAD1001   0.0000
    61 H1B          3.3394    18.7659   -15.7646 H            1 FAD1001   0.0000
    62 H8A          2.6149    15.8622   -13.4518 H            1 FAD1001   0.0000
    63 H6A1         1.4614    20.3107    -9.1676 H            1 FAD1001   0.0000
    64 H6A2         1.5394    18.6024    -9.4423 H            1 FAD1001   0.0000
    65 H2A          2.5316    22.2469   -13.0876 H            1 FAD1001   0.0000
    66 H13          1.1410     4.5983   -26.6572 H            1 FAD1001   0.0000
    67 H14          7.7857     4.9786   -24.9503 H            1 FAD1001   0.0000
    68 H7M1        10.1460     5.9624   -22.3532 H            1 FAD1001   0.0000
    69 H7M2         9.9541     4.6715   -23.3348 H            1 FAD1001   0.0000
    70 H7M3        10.0289     6.1748   -23.9681 H            1 FAD1001   0.0000
    71 H8M1         7.9179     7.0937   -19.9457 H            1 FAD1001   0.0000
    72 H8M2         9.0282     5.9732   -20.3683 H            1 FAD1001   0.0000
    73 H8M3         9.1013     7.4755   -21.0043 H            1 FAD1001   0.0000
    74 H21          5.8490     6.8158   -20.8566 H            1 FAD1001   0.0000
    75 H1'1         3.7154     6.2727   -20.6200 H            1 FAD1001   0.0000
    76 H1'2         2.3270     6.4044   -21.4694 H            1 FAD1001   0.0000
    77 H2'          4.1239     8.5550   -21.7820 H            1 FAD1001   0.0000
    78 H25          3.0770     9.2748   -19.6217 H            1 FAD1001   0.0000
    79 H3'          1.2859     8.4877   -21.2200 H            1 FAD1001   0.0000
    80 H27          1.7054     7.3521   -23.1461 H            1 FAD1001   0.0000
    81 H4'          2.4811    10.6383   -22.6541 H            1 FAD1001   0.0000
    82 H29          2.1086    11.3854   -20.1295 H            1 FAD1001   0.0000
    83 H5'1         0.1497    10.5058   -20.9515 H            1 FAD1001   0.0000
    84 H5'2         0.1040    10.5057   -22.5838 H            1 FAD1001   0.0000
@<TRIPOS>BOND
     1    1    2      ar
     2    1    3      ar
     3    1    4       1
     4    1   53       1
     5    4    5       1
     6    5    6       1
     7    6    7       1
     8    6    8       1
     9    7   12       1
    10    8    9       1
    11    8   10       1
    12   10   11       1
    13   10   12       1
    14   12   13       1
    15   13   14       1
    16   13   22       1
    17   14   15       2
    18   15   16       1
    19   16   17      ar
    20   16   22      ar
    21   17   18       1
    22   17   19      ar
    23   19   20      ar
    24   20   21      ar
    25   21   22      ar
    26   23   24       1
    27   23   40       2
    28   24   25       2
    29   24   26       1
    30   26   27       1
    31   27   28       2
    32   27   29       1
    33   29   30       2
    34   29   40       1
    35   30   31       1
    36   31   32      ar
    37   31   38      ar
    38   32   33      ar
    39   33   34       1
    40   33   35      ar
    41   35   36       1
    42   35   37      ar
    43   37   38      ar
    44   38   39       1
    45   39   40       1
    46   39   41       1
    47   41   42       1
    48   42   43       1
    49   42   44       1
    50   44   45       1
    51   44   46       1
    52   46   47       1
    53   46   48       1
    54   48   49       1
    55   49   50       1
    56   50   51      ar
    57   50   52      ar
    58   50   53       1
    59   48   84       1
    60    5   54       1
    61    5   55       1
    62    6   56       1
    63    8   57       1
    64    9   58       1
    65   10   59       1
    66   11   60       1
    67   12   61       1
    68   14   62       1
    69   18   63       1
    70   18   64       1
    71   20   65       1
    72   26   66       1
    73   32   67       1
    74   34   68       1
    75   34   69       1
    76   34   70       1
    77   36   71       1
    78   36   72       1
    79   36   73       1
    80   37   74       1
    81   41   75       1
    82   41   76       1
    83   42   77       1
    84   43   78       1
    85   44   79       1
    86   45   80       1
    87   46   81       1
    88   47   82       1
    89   48   83       1
@<TRIPOS>SUBSTRUCTURE
     1 FAD1001     1 GROUP             4 A     FAD     0 **** FAD A1001
