@<TRIPOS>MOLECULE
3ge1_ADP_3_ligand
   39    41     1     0     0
SMALL
NO_CHARGES


@<TRIPOS>ATOM
     1 PB          -8.4180   -54.4160    27.2970 P.3          1 ADP499   0.0000
     2 O1B         -9.1590   -54.9260    28.5130 O.co2        1 ADP499   0.0000
     3 O2B         -7.3590   -55.3660    26.7880 O.co2        1 ADP499  -1.0000
     4 O3B         -9.3300   -53.8740    26.2160 O.co2        1 ADP499  -1.0000
     5 PA          -6.2120   -52.5660    27.1530 P.3          1 ADP499   0.0000
     6 O1A         -6.3380   -52.5720    25.6470 O.co2        1 ADP499   0.0000
     7 O2A         -5.0630   -53.3090    27.7980 O.co2        1 ADP499  -1.0000
     8 O3A         -7.6000   -53.1120    27.8190 O.3          1 ADP499   0.0000
     9 O5'         -6.1320   -51.0200    27.6410 O.3          1 ADP499   0.0000
    10 C5'         -6.6510   -49.9400    26.8540 C.3          1 ADP499   0.0000
    11 C4'         -7.2780   -48.8710    27.7540 C.3          1 ADP499   0.0000
    12 O4'         -6.2940   -47.9120    28.1720 O.3          1 ADP499   0.0000
    13 C3'         -8.3810   -48.0940    27.0440 C.3          1 ADP499   0.0000
    14 O3'         -9.5960   -48.1790    27.7950 O.3          1 ADP499   0.0000
    15 C2'         -7.8920   -46.6590    26.9470 C.3          1 ADP499   0.0000
    16 O2'         -8.9110   -45.7100    27.2660 O.3          1 ADP499   0.0000
    17 C1'         -6.7480   -46.5700    27.9370 C.3          1 ADP499   0.0000
    18 N9          -5.6400   -45.7450    27.4000 N.pl3        1 ADP499   0.0000
    19 C8          -5.0220   -45.9300    26.2110 C.2          1 ADP499   0.0000
    20 N7          -4.0440   -44.9980    26.0370 N.2          1 ADP499   0.0000
    21 C5          -4.0290   -44.2040    27.1250 C.ar         1 ADP499   0.0000
    22 C6          -3.2420   -43.0310    27.5800 C.ar         1 ADP499   0.0000
    23 N6          -2.2520   -42.5120    26.8120 N.pl3        1 ADP499   0.0000
    24 N1          -3.5440   -42.4920    28.7860 N.ar         1 ADP499   0.0000
    25 C2          -4.5250   -42.9960    29.5660 C.ar         1 ADP499   0.0000
    26 N3          -5.2750   -44.0630    29.2050 N.ar         1 ADP499   0.0000
    27 C4          -5.0790   -44.6980    28.0190 C.ar         1 ADP499   0.0000
    28 H5'1        -7.3472   -50.2934    26.2292 H            1 ADP499   0.0000
    29 H5'2        -5.9068   -49.5304    26.3264 H            1 ADP499   0.0000
    30 H4'         -7.6632   -49.3141    28.5635 H            1 ADP499   0.0000
    31 H3'         -8.5223   -48.4669    26.1270 H            1 ADP499   0.0000
    32 H5         -10.3769   -48.1274    27.1725 H            1 ADP499   0.0000
    33 H2'         -7.5496   -46.4842    26.0239 H            1 ADP499   0.0000
    34 H7          -8.4929   -44.8922    27.6613 H            1 ADP499   0.0000
    35 H1'         -7.0766   -46.1727    28.7938 H            1 ADP499   0.0000
    36 H9          -5.2505   -46.6482    25.5538 H            1 ADP499   0.0000
    37 H10         -1.7317   -41.7212    27.1342 H            1 ADP499   0.0000
    38 H11         -2.0424   -42.9201    25.9235 H            1 ADP499   0.0000
    39 H12         -4.7048   -42.5617    30.4486 H            1 ADP499   0.0000
@<TRIPOS>BOND
     1    1    2      ar
     2    1    3      ar
     3    1    4      ar
     4    1    8       1
     5    5    6      ar
     6    5    7      ar
     7    5    8       1
     8    5    9       1
     9    9   10       1
    10   10   11       1
    11   11   12       1
    12   11   13       1
    13   12   17       1
    14   13   14       1
    15   13   15       1
    16   15   16       1
    17   15   17       1
    18   17   18       1
    19   18   19       1
    20   18   27       1
    21   19   20       2
    22   20   21       1
    23   21   22      ar
    24   21   27      ar
    25   22   23       1
    26   22   24      ar
    27   24   25      ar
    28   25   26      ar
    29   26   27      ar
    30   25   39       1
    31   23   38       1
    32   23   37       1
    33   10   28       1
    34   10   29       1
    35   11   30       1
    36   13   31       1
    37   14   32       1
    38   15   33       1
    39   16   34       1
    40   17   35       1
    41   19   36       1
@<TRIPOS>SUBSTRUCTURE
     1 ADP499      1 GROUP             4 C     ADP     0 **** ADP C 499
