@<TRIPOS>MOLECULE
1xny_BTN_4_ligand
   31    32     1     0     0
SMALL
NO_CHARGES


@<TRIPOS>ATOM
     1 C11         34.6170   -63.4750  -122.7300 C.2          1 BTN5602   0.0000
     2 O11         34.2860   -64.6620  -122.6950 O.co2        1 BTN5602   0.0000
     3 O12         34.4590   -62.7640  -121.7390 O.co2        1 BTN5602  -1.0000
     4 C10         35.2240   -62.8900  -123.9990 C.3          1 BTN5602   0.0000
     5 C9          34.1820   -62.4520  -125.0540 C.3          1 BTN5602   0.0000
     6 C8          34.1870   -63.3780  -126.2720 C.3          1 BTN5602   0.0000
     7 C7          33.0690   -64.3980  -126.2550 C.3          1 BTN5602   0.0000
     8 C2          32.1700   -64.4020  -127.5050 C.3          1 BTN5602   0.0000
     9 S1          31.2610   -62.7570  -127.8840 S.3          1 BTN5602   0.0000
    10 C6          30.1740   -63.7510  -129.0970 C.3          1 BTN5602   0.0000
    11 C5          29.9910   -65.1270  -128.3980 C.3          1 BTN5602   0.0000
    12 N1          28.7210   -64.9730  -127.5140 N.pl3        1 BTN5602   0.0000
    13 C3          28.9580   -65.1460  -126.2860 C.2          1 BTN5602   0.0000
    14 O3          28.1840   -65.1020  -125.2650 O.3          1 BTN5602   0.0000
    15 N2          30.3440   -65.4460  -125.9900 N.2          1 BTN5602   0.0000
    16 C4          31.0480   -65.4410  -127.3600 C.3          1 BTN5602   0.0000
    17 H1          35.8166   -63.5819  -124.4114 H            1 BTN5602   0.0000
    18 H2          35.7700   -62.0912  -123.7465 H            1 BTN5602   0.0000
    19 H3          34.3948   -61.5218  -125.3531 H            1 BTN5602   0.0000
    20 H4          33.2728   -62.4685  -124.6380 H            1 BTN5602   0.0000
    21 H5          35.0601   -63.8649  -126.2967 H            1 BTN5602   0.0000
    22 H6          34.0937   -62.8189  -127.0958 H            1 BTN5602   0.0000
    23 H7          32.4924   -64.2126  -125.4593 H            1 BTN5602   0.0000
    24 H8          33.4790   -65.3057  -126.1653 H            1 BTN5602   0.0000
    25 H9          32.7288   -64.6462  -128.2975 H            1 BTN5602   0.0000
    26 H10         30.6329   -63.8587  -129.9789 H            1 BTN5602   0.0000
    27 H11         29.2912   -63.3015  -129.2333 H            1 BTN5602   0.0000
    28 H12         29.8922   -65.8687  -129.0614 H            1 BTN5602   0.0000
    29 H13         27.8146   -64.7600  -127.8787 H            1 BTN5602   0.0000
    30 H14         31.4210   -66.3515  -127.5388 H            1 BTN5602   0.0000
    31 H15         28.5528   -65.2680  -124.3504 H            1 BTN5602   0.0000
@<TRIPOS>BOND
     1    1    2      ar
     2    1    3      ar
     3    1    4       1
     4    4    5       1
     5    5    6       1
     6    6    7       1
     7    7    8       1
     8    8    9       1
     9    8   16       1
    10    9   10       1
    11   10   11       1
    12   11   12       1
    13   11   16       1
    14   12   13       1
    15   13   14       1
    16   13   15       2
    17   15   16       1
    18   16   30       1
    19    4   17       1
    20    4   18       1
    21    5   19       1
    22    5   20       1
    23    6   21       1
    24    6   22       1
    25    7   23       1
    26    7   24       1
    27    8   25       1
    28   10   26       1
    29   10   27       1
    30   11   28       1
    31   12   29       1
    32   14   31       1
@<TRIPOS>SUBSTRUCTURE
     1 BTN5602     1 GROUP             4 B     BTN     0 **** BTN B5602
