@<TRIPOS>MOLECULE
1eb9_HBA_1_ligand
   15    15     1     0     0
SMALL
NO_CHARGES


@<TRIPOS>ATOM
     1 C1'         51.2460    45.0700   120.9190 C.2          1 HBA1259   0.0000
     2 O1'         50.8700    44.6100   122.0150 O.2          1 HBA1259   0.0000
     3 C1          51.2460    46.5010   120.6800 C.ar         1 HBA1259   0.0000
     4 C2          51.4710    46.9940   119.3830 C.ar         1 HBA1259   0.0000
     5 C3          51.4710    48.3730   119.1750 C.ar         1 HBA1259   0.0000
     6 C4          51.2440    49.2610   120.2690 C.ar         1 HBA1259   0.0000
     7 C5          51.0180    48.7390   121.5690 C.ar         1 HBA1259   0.0000
     8 C6          51.0200    47.3650   121.7720 C.ar         1 HBA1259   0.0000
     9 O4          51.2640    50.6390   120.0290 O.3          1 HBA1259   0.0000
    10 H1'         51.5503    44.4472   120.1982 H            1 HBA1259   0.0000
    11 H2          51.6286    46.3656   118.6212 H            1 HBA1259   0.0000
    12 H3          51.6302    48.7400   118.2585 H            1 HBA1259   0.0000
    13 H4          50.8577    49.3589   122.3371 H            1 HBA1259   0.0000
    14 H5          50.8623    46.9908   122.6859 H            1 HBA1259   0.0000
    15 H6          51.1075    51.2798   120.7806 H            1 HBA1259   0.0000
@<TRIPOS>BOND
     1    1    2       2
     2    1    3       1
     3    3    4      ar
     4    3    8      ar
     5    4    5      ar
     6    5    6      ar
     7    6    7      ar
     8    6    9       1
     9    7    8      ar
    10    1   10       1
    11    4   11       1
    12    5   12       1
    13    7   13       1
    14    8   14       1
    15    9   15       1
@<TRIPOS>SUBSTRUCTURE
     1 HBA1259     1 GROUP             4 A     HBA     0 **** HBA A1259
