@<TRIPOS>MOLECULE
2wqp_WQP_1_ligand
   44    43     1     0     0
SMALL
NO_CHARGES


@<TRIPOS>ATOM
     1 OAE         95.7180   -19.7390    55.4620 O.co2        1 WQP1350   0.0000
     2 PAD         96.2220   -18.8830    54.3400 P.3          1 WQP1350   0.0000
     3 OAA         96.6930   -17.4820    54.7370 O.co2        1 WQP1350  -1.0000
     4 OAC         95.3710   -19.0110    53.0950 O.co2        1 WQP1350  -1.0000
     5 OAH         97.6280   -19.5900    53.9530 O.3          1 WQP1350   0.0000
     6 CAN         97.9380   -20.3200    52.7920 C.3          1 WQP1350   0.0000
     7 CAM         99.4330   -20.4590    52.7460 C.2          1 WQP1350   0.0000
     8 OAV        100.1020   -19.6700    53.4430 O.co2        1 WQP1350   0.0000
     9 OAL         99.9400   -21.3300    52.0000 O.co2        1 WQP1350  -1.0000
    10 CAO         97.2590   -21.6850    52.7730 C.3          1 WQP1350   0.0000
    11 CAP         96.5660   -21.8730    51.4250 C.3          1 WQP1350   0.0000
    12 OAW         95.4130   -21.0130    51.4280 O.3          1 WQP1350   0.0000
    13 CAQ         96.1790   -23.3480    51.1770 C.3          1 WQP1350   0.0000
    14 NAI         95.2390   -23.7710    52.2060 N.am         1 WQP1350   0.0000
    15 CAF         95.5590   -24.6390    53.1650 C.2          1 WQP1350   0.0000
    16 CAG         94.4740   -24.9830    54.1330 C.3          1 WQP1350   0.0000
    17 OAB         96.6610   -25.1380    53.2590 O.2          1 WQP1350   0.0000
    18 CAR         95.5570   -23.5740    49.7890 C.3          1 WQP1350   0.0000
    19 OAX         96.3020   -22.9300    48.7410 O.3          1 WQP1350   0.0000
    20 CAS         95.4180   -25.0540    49.4470 C.3          1 WQP1350   0.0000
    21 OAJ         96.7320   -25.6300    49.2750 O.3          1 WQP1350   0.0000
    22 CAT         94.5900   -25.2840    48.1710 C.3          1 WQP1350   0.0000
    23 OAY         93.3600   -24.5370    48.1780 O.3          1 WQP1350   0.0000
    24 CAU         94.2630   -26.7630    48.0570 C.3          1 WQP1350   0.0000
    25 OAK         93.2800   -26.9750    47.0410 O.3          1 WQP1350   0.0000
    26 HAN         97.6375   -19.7989    51.9932 H            1 WQP1350   0.0000
    27 HAO1        96.5827   -21.7340    53.5080 H            1 WQP1350   0.0000
    28 HAO2        97.9436   -22.4025    52.9016 H            1 WQP1350   0.0000
    29 HAP         97.1870   -21.5766    50.6994 H            1 WQP1350   0.0000
    30 HAW         95.3650   -20.5228    52.2983 H            1 WQP1350   0.0000
    31 HAQ         97.0035   -23.9091    51.2504 H            1 WQP1350   0.0000
    32 HAI         94.3131   -23.3935    52.1922 H            1 WQP1350   0.0000
    33 HAG1        94.8215   -25.6374    54.8045 H            1 WQP1350   0.0000
    34 HAG2        94.1704   -24.1536    54.6020 H            1 WQP1350   0.0000
    35 HAG3        93.7039   -25.3882    53.6403 H            1 WQP1350   0.0000
    36 HAR         94.6395   -23.1765    49.7984 H            1 WQP1350   0.0000
    37 HAX         95.8598   -23.1054    47.8614 H            1 WQP1350   0.0000
    38 HAS         94.9645   -25.5162    50.2091 H            1 WQP1350   0.0000
    39 HAJ         97.3610   -24.9302    48.9364 H            1 WQP1350   0.0000
    40 HAT         95.1327   -25.0090    47.3774 H            1 WQP1350   0.0000
    41 HAY         93.5129   -23.6392    47.7649 H            1 WQP1350   0.0000
    42 HAU1        93.9089   -27.0914    48.9327 H            1 WQP1350   0.0000
    43 HAU2        95.0939   -27.2678    47.8230 H            1 WQP1350   0.0000
    44 HAK         92.3666   -26.9226    47.4448 H            1 WQP1350   0.0000
@<TRIPOS>BOND
     1    1    2      ar
     2    2    3      ar
     3    2    4      ar
     4    2    5       1
     5    5    6       1
     6    6    7       1
     7    6   10       1
     8    7    8      ar
     9    7    9      ar
    10   10   11       1
    11   11   12       1
    12   11   13       1
    13   13   14       1
    14   13   18       1
    15   14   15      am
    16   15   16       1
    17   15   17       2
    18   18   19       1
    19   18   20       1
    20   20   21       1
    21   20   22       1
    22   22   23       1
    23   22   24       1
    24   24   25       1
    25   25   44       1
    26   24   43       1
    27    6   26       1
    28   24   42       1
    29   10   27       1
    30   10   28       1
    31   11   29       1
    32   12   30       1
    33   13   31       1
    34   14   32       1
    35   16   33       1
    36   16   34       1
    37   16   35       1
    38   18   36       1
    39   19   37       1
    40   20   38       1
    41   21   39       1
    42   22   40       1
    43   23   41       1
@<TRIPOS>SUBSTRUCTURE
     1 WQP1350     1 GROUP             4 A     WQP     0 **** WQP A1350
