@<TRIPOS>MOLECULE
1f3b_GBX_1_ligand
   73    77     1     0     0
SMALL
NO_CHARGES


@<TRIPOS>ATOM
     1 O2          26.6540   -12.3620     6.4900 O.2          1 GBX223   0.0000
     2 C1          26.9090    -6.6180    11.4850 C.2          1 GBX223   0.0000
     3 C2          26.0820   -11.5730     5.7370 C.2          1 GBX223   0.0000
     4 C3          23.1630   -13.5350     4.9780 C.2          1 GBX223   0.0000
     5 N1          24.5470    -5.8220    11.5970 N.4          1 GBX223   1.0000
     6 C7          24.8780    -8.7680     2.4790 C.3          1 GBX223   0.0000
     7 N2          26.4790    -9.6600     7.1660 N.am         1 GBX223   0.0000
     8 N3          25.1280   -11.9420     4.8780 N.am         1 GBX223   0.0000
     9 CA1         25.4470    -6.9220    11.1330 C.3          1 GBX223   0.0000
    10 O11         27.7000    -7.5340    11.7390 O.co2        1 GBX223   0.0000
    11 O12         27.2330    -5.4130    11.4860 O.co2        1 GBX223  -1.0000
    12 CB1         25.3210    -7.1230     9.6330 C.3          1 GBX223   0.0000
    13 CG1         25.9230    -8.4320     9.1480 C.3          1 GBX223   0.0000
    14 CD1         25.7280    -8.6810     7.6600 C.2          1 GBX223   0.0000
    15 OE1         24.9450    -8.0140     6.9820 O.2          1 GBX223   0.0000
    16 CA2         26.4390   -10.0830     5.7710 C.3          1 GBX223   0.0000
    17 CB2         27.7940    -9.8160     5.0910 C.3          1 GBX223   0.0000
    18 SG2         28.2810    -8.0500     4.9840 S.3          1 GBX223   0.0000
    19 CA3         24.6530   -13.3160     4.6970 C.3          1 GBX223   0.0000
    20 O31         22.6690   -14.6760     4.9240 O.co2        1 GBX223   0.0000
    21 O32         22.4690   -12.5330     5.2520 O.co2        1 GBX223  -1.0000
    22 O7          24.5120    -9.5400     3.3900 O.3          1 GBX223   0.0000
    23 C8          24.8110    -7.5160     2.8080 C.3          1 GBX223   0.0000
    24 O8          24.8610    -6.7890     1.7990 O.3          1 GBX223   0.0000
    25 C9          25.8940    -7.0450     3.8710 C.3          1 GBX223   0.0000
    26 O9          25.8310    -5.6170     4.0070 O.3          1 GBX223   0.0000
    27 C10         27.3900    -7.4360     3.5120 C.3          1 GBX223   0.0000
    28 C1'         26.3200   -10.1340     0.8380 C.ar         1 GBX223   0.0000
    29 C2'         26.2410    -9.1310     1.8760 C.ar         1 GBX223   0.0000
    30 C3'         27.4510    -8.4750     2.3560 C.ar         1 GBX223   0.0000
    31 C4'         29.9190    -8.0110     2.0700 C.ar         1 GBX223   0.0000
    32 C5'         31.1500    -8.2680     1.4150 C.ar         1 GBX223   0.0000
    33 C6'         32.4790    -9.5500    -0.2470 C.ar         1 GBX223   0.0000
    34 C7'         32.5610   -10.5570    -1.2460 C.ar         1 GBX223   0.0000
    35 C8'         31.3860   -11.2960    -1.6200 C.ar         1 GBX223   0.0000
    36 C9'         28.9340   -11.7510    -1.3900 C.ar         1 GBX223   0.0000
    37 C9A         27.6750   -11.4580    -0.7750 C.ar         1 GBX223   0.0000
    38 C11         27.5800   -10.4560     0.2470 C.ar         1 GBX223   0.0000
    39 C12         28.7800    -9.7490     0.6790 C.ar         1 GBX223   0.0000
    40 C13         28.7180    -8.7680     1.7280 C.ar         1 GBX223   0.0000
    41 C16         31.2310    -9.2720     0.4000 C.ar         1 GBX223   0.0000
    42 C17         30.0480   -10.0120     0.0230 C.ar         1 GBX223   0.0000
    43 C18         30.1270   -11.0230    -1.0020 C.ar         1 GBX223   0.0000
    44 H1          24.4546    -5.1389    10.8725 H            1 GBX223   0.0000
    45 H2          23.6470    -6.1982    11.8172 H            1 GBX223   0.0000
    46 H3          24.2151    -8.8888     1.7401 H            1 GBX223   0.0000
    47 H4          27.1061   -10.1326     7.7851 H            1 GBX223   0.0000
    48 H5          24.7074   -11.2285     4.3177 H            1 GBX223   0.0000
    49 HA1         25.1781    -7.7689    11.5918 H            1 GBX223   0.0000
    50 HB11        25.7881    -6.3688     9.1715 H            1 GBX223   0.0000
    51 HB12        24.3506    -7.1115     9.3918 H            1 GBX223   0.0000
    52 HG11        25.4952    -9.1821     9.6523 H            1 GBX223   0.0000
    53 HG12        26.9043    -8.4183     9.3398 H            1 GBX223   0.0000
    54 HA2         25.7277    -9.5665     5.2942 H            1 GBX223   0.0000
    55 HB21        27.7508   -10.1817     4.1613 H            1 GBX223   0.0000
    56 HB22        28.5000   -10.3007     5.6074 H            1 GBX223   0.0000
    57 HA31        24.8313   -13.5824     3.7498 H            1 GBX223   0.0000
    58 HA32        25.1739   -13.9068     5.3132 H            1 GBX223   0.0000
    59 H16         23.5296    -9.7084     3.3096 H            1 GBX223   0.0000
    60 H17         23.9134    -7.3729     3.2249 H            1 GBX223   0.0000
    61 H18         25.6549    -6.1843     1.8629 H            1 GBX223   0.0000
    62 H19         25.6658    -7.4548     4.7542 H            1 GBX223   0.0000
    63 H20         26.4524    -5.1918     3.3490 H            1 GBX223   0.0000
    64 H21         27.8541    -6.6070     3.2000 H            1 GBX223   0.0000
    65 H1'         25.4912   -10.6032     0.5332 H            1 GBX223   0.0000
    66 H4'         29.8727    -7.3029     2.7746 H            1 GBX223   0.0000
    67 H5'         31.9651    -7.7449     1.6639 H            1 GBX223   0.0000
    68 H6'         33.2965    -9.0326     0.0059 H            1 GBX223   0.0000
    69 H7'         33.4361   -10.7517    -1.6890 H            1 GBX223   0.0000
    70 H8'         31.4504   -12.0079    -2.3193 H            1 GBX223   0.0000
    71 H9'         28.9913   -12.4617    -2.0912 H            1 GBX223   0.0000
    72 H9A         26.8557   -11.9555    -1.0600 H            1 GBX223   0.0000
    73 H30         24.9374    -5.3932    12.4117 H            1 GBX223   0.0000
@<TRIPOS>BOND
     1    1    3       2
     2    2    9       1
     3    2   10      ar
     4    2   11      ar
     5    3    8      am
     6    3   16       1
     7    4   19       1
     8    4   20      ar
     9    4   21      ar
    10    5    9       1
    11    6   22       1
    12    6   23       1
    13    6   29       1
    14    7   14      am
    15    7   16       1
    16    8   19       1
    17    9   12       1
    18   12   13       1
    19   13   14       1
    20   14   15       2
    21   16   17       1
    22   17   18       1
    23   18   27       1
    24   23   24       1
    25   23   25       1
    26   25   26       1
    27   25   27       1
    28   27   30       1
    29   28   29      ar
    30   28   38      ar
    31   29   30      ar
    32   30   40      ar
    33   31   32      ar
    34   31   40      ar
    35   32   41      ar
    36   33   34      ar
    37   33   41      ar
    38   34   35      ar
    39   35   43      ar
    40   36   37      ar
    41   36   43      ar
    42   37   38      ar
    43   38   39      ar
    44   39   40      ar
    45   39   42      ar
    46   41   42      ar
    47   42   43      ar
    48    5   44       1
    49    5   45       1
    50    6   46       1
    51    7   47       1
    52    8   48       1
    53    9   49       1
    54    5   73       1
    55   12   50       1
    56   12   51       1
    57   13   52       1
    58   13   53       1
    59   16   54       1
    60   17   55       1
    61   17   56       1
    62   19   57       1
    63   19   58       1
    64   37   72       1
    65   22   59       1
    66   23   60       1
    67   24   61       1
    68   25   62       1
    69   26   63       1
    70   27   64       1
    71   28   65       1
    72   31   66       1
    73   32   67       1
    74   33   68       1
    75   34   69       1
    76   35   70       1
    77   36   71       1
@<TRIPOS>SUBSTRUCTURE
     1 GBX223      1 GROUP             4 A     GBX     0 **** GBX A 223
