@<TRIPOS>MOLECULE
1xmv_ADP_1_ligand
   39    41     1     0     0
SMALL
NO_CHARGES


@<TRIPOS>ATOM
     1 PB          23.8020     6.8150     8.6530 P.3          1 ADP400   0.0000
     2 O1B         22.4020     6.9600     9.1080 O.co2        1 ADP400   0.0000
     3 O2B         24.0450     5.5450     7.8930 O.co2        1 ADP400  -1.0000
     4 O3B         24.2510     8.1160     7.9080 O.co2        1 ADP400  -1.0000
     5 PA          25.6660     7.6600    10.7040 P.3          1 ADP400   0.0000
     6 O1A         24.9950     8.9940    10.8660 O.co2        1 ADP400   0.0000
     7 O2A         26.9890     7.6690     9.9850 O.co2        1 ADP400  -1.0000
     8 O3A         24.6120     6.7080    10.0220 O.3          1 ADP400   0.0000
     9 O5'         25.7090     7.1270    12.1840 O.3          1 ADP400   0.0000
    10 C5'         26.3070     5.8470    12.5350 C.3          1 ADP400   0.0000
    11 C4'         26.9420     5.9200    13.9250 C.3          1 ADP400   0.0000
    12 O4'         27.8280     7.0820    13.9270 O.3          1 ADP400   0.0000
    13 C3'         25.9710     6.2140    15.0810 C.3          1 ADP400   0.0000
    14 O3'         25.3920     4.9720    15.5280 O.3          1 ADP400   0.0000
    15 C2'         26.8800     6.9500    16.0730 C.3          1 ADP400   0.0000
    16 O2'         27.6460     6.0690    16.9130 O.3          1 ADP400   0.0000
    17 C1'         27.8300     7.7720    15.1820 C.3          1 ADP400   0.0000
    18 N9          27.2990     9.1860    14.9830 N.pl3        1 ADP400   0.0000
    19 C8          26.6150     9.6700    13.9050 C.2          1 ADP400   0.0000
    20 N7          26.2760    10.9610    14.0210 N.2          1 ADP400   0.0000
    21 C5          26.7690    11.3170    15.2300 C.ar         1 ADP400   0.0000
    22 C6          26.7300    12.5820    15.9330 C.ar         1 ADP400   0.0000
    23 N6          26.1850    13.6660    15.5070 N.pl3        1 ADP400   0.0000
    24 N1          27.3560    12.5580    17.1730 N.ar         1 ADP400   0.0000
    25 C2          27.9680    11.4240    17.7030 C.ar         1 ADP400   0.0000
    26 N3          28.0110    10.2460    17.0650 N.ar         1 ADP400   0.0000
    27 C4          27.4090    10.2370    15.8500 C.ar         1 ADP400   0.0000
    28 H5'1        27.0105     5.6163    11.8628 H            1 ADP400   0.0000
    29 H5'2        25.5992     5.1406    12.5325 H            1 ADP400   0.0000
    30 H4'         27.4624     5.0869    14.1127 H            1 ADP400   0.0000
    31 H3'         25.2481     6.8289    14.7660 H            1 ADP400   0.0000
    32 H5          24.3985     5.0096    15.4205 H            1 ADP400   0.0000
    33 H2'         26.3323     7.5653    16.6400 H            1 ADP400   0.0000
    34 H7          28.2307     5.4907    16.3440 H            1 ADP400   0.0000
    35 H1'         28.7505     7.7923    15.5721 H            1 ADP400   0.0000
    36 H9          26.3887     9.1140    13.1052 H            1 ADP400   0.0000
    37 H10         26.2105    14.4928    16.0689 H            1 ADP400   0.0000
    38 H11         25.7357    13.6822    14.6138 H            1 ADP400   0.0000
    39 H12         28.3964    11.4924    18.6040 H            1 ADP400   0.0000
@<TRIPOS>BOND
     1    1    2      ar
     2    1    3      ar
     3    1    4      ar
     4    1    8       1
     5    5    6      ar
     6    5    7      ar
     7    5    8       1
     8    5    9       1
     9    9   10       1
    10   10   11       1
    11   11   12       1
    12   11   13       1
    13   12   17       1
    14   13   14       1
    15   13   15       1
    16   15   16       1
    17   15   17       1
    18   17   18       1
    19   18   19       1
    20   18   27       1
    21   19   20       2
    22   20   21       1
    23   21   22      ar
    24   21   27      ar
    25   22   23       1
    26   22   24      ar
    27   24   25      ar
    28   25   26      ar
    29   26   27      ar
    30   25   39       1
    31   23   38       1
    32   23   37       1
    33   10   28       1
    34   10   29       1
    35   11   30       1
    36   13   31       1
    37   14   32       1
    38   15   33       1
    39   16   34       1
    40   17   35       1
    41   19   36       1
@<TRIPOS>SUBSTRUCTURE
     1 ADP400      1 GROUP             4 A     ADP     0 **** ADP A 400
