@<TRIPOS>MOLECULE
3klb_FMN_1_ligand
   50    52     1     0     0
SMALL
NO_CHARGES


@<TRIPOS>ATOM
     1 N1          25.6030    -2.8300    27.4120 N.2          1 FMN162   0.0000
     2 C2          24.6720    -2.6100    26.4490 C.2          1 FMN162   0.0000
     3 O2          24.8860    -2.8540    25.2380 O.2          1 FMN162   0.0000
     4 N3          23.4890    -1.9990    26.8220 N.pl3        1 FMN162   0.0000
     5 C4          23.2130    -1.7120    28.1610 C.2          1 FMN162   0.0000
     6 O4          22.1250    -1.1600    28.4440 O.2          1 FMN162   0.0000
     7 C4A         24.1400    -2.0520    29.1350 C.2          1 FMN162   0.0000
     8 N5          23.8700    -1.8690    30.4880 N.2          1 FMN162   0.0000
     9 C5A         24.7870    -2.2560    31.4340 C.ar         1 FMN162   0.0000
    10 C6          24.4720    -2.0810    32.8020 C.ar         1 FMN162   0.0000
    11 C7          25.4440    -2.3490    33.7640 C.ar         1 FMN162   0.0000
    12 C7M         25.1130    -2.1290    35.2330 C.3          1 FMN162   0.0000
    13 C8          26.7140    -2.8040    33.3680 C.ar         1 FMN162   0.0000
    14 C8M         27.8350    -3.1520    34.3300 C.3          1 FMN162   0.0000
    15 C9          27.0270    -2.9900    32.0140 C.ar         1 FMN162   0.0000
    16 C9A         26.0700    -2.7250    31.0560 C.ar         1 FMN162   0.0000
    17 N10         26.3490    -2.8810    29.6960 N.pl3        1 FMN162   0.0000
    18 C10         25.3650    -2.6060    28.7680 C.2          1 FMN162   0.0000
    19 C1'         27.7060    -3.3100    29.2730 C.3          1 FMN162   0.0000
    20 C2'         28.7150    -2.1670    29.3150 C.3          1 FMN162   0.0000
    21 O2'         28.1810    -1.0280    28.6260 O.3          1 FMN162   0.0000
    22 C3'         29.9910    -2.6200    28.6060 C.3          1 FMN162   0.0000
    23 O3'         30.4060    -3.8980    29.0950 O.3          1 FMN162   0.0000
    24 C4'         31.1070    -1.5740    28.7310 C.3          1 FMN162   0.0000
    25 O4'         32.0940    -1.7060    27.7200 O.3          1 FMN162   0.0000
    26 C5'         31.8410    -1.6500    30.0320 C.3          1 FMN162   0.0000
    27 O5'         32.6880    -0.5430    30.0920 O.3          1 FMN162   0.0000
    28 P           33.7960    -0.3670    31.2390 P.3          1 FMN162   0.0000
    29 O1P         34.7360    -1.5880    31.1840 O.co2        1 FMN162   0.0000
    30 O2P         33.2370    -0.3350    32.6390 O.co2        1 FMN162  -1.0000
    31 O3P         34.5950     0.8670    30.9070 O.co2        1 FMN162  -1.0000
    32 H1          22.8186    -1.7581    26.1202 H            1 FMN162   0.0000
    33 H2          23.5623    -1.7686    33.0756 H            1 FMN162   0.0000
    34 H7M1        25.9076    -2.3644    35.7926 H            1 FMN162   0.0000
    35 H7M2        24.8737    -1.1693    35.3807 H            1 FMN162   0.0000
    36 H7M3        24.3401    -2.7087    35.4910 H            1 FMN162   0.0000
    37 H8M1        28.6373    -3.4504    33.8130 H            1 FMN162   0.0000
    38 H8M2        28.0696    -2.3463    34.8739 H            1 FMN162   0.0000
    39 H8M3        27.5367    -3.8886    34.9370 H            1 FMN162   0.0000
    40 H9          27.9349    -3.3116    31.7452 H            1 FMN162   0.0000
    41 H1'1        27.6554    -3.6599    28.3376 H            1 FMN162   0.0000
    42 H1'2        28.0184    -4.0371    29.8844 H            1 FMN162   0.0000
    43 H2'         28.9190    -1.9268    30.2640 H            1 FMN162   0.0000
    44 H13         27.3323    -0.7384    29.0686 H            1 FMN162   0.0000
    45 H3'         29.7782    -2.7217    27.6342 H            1 FMN162   0.0000
    46 H15         30.1231    -3.9978    30.0489 H            1 FMN162   0.0000
    47 H4'         30.6968    -0.6653    28.6537 H            1 FMN162   0.0000
    48 H17         32.4885    -0.8091    27.5201 H            1 FMN162   0.0000
    49 H5'1        32.3761    -2.4937    30.0749 H            1 FMN162   0.0000
    50 H5'2        31.1928    -1.6273    30.7931 H            1 FMN162   0.0000
@<TRIPOS>BOND
     1    1    2       1
     2    1   18       2
     3    2    3       2
     4    2    4       1
     5    4    5       1
     6    5    6       2
     7    5    7       1
     8    7    8       2
     9    7   18       1
    10    8    9       1
    11    9   10      ar
    12    9   16      ar
    13   10   11      ar
    14   11   12       1
    15   11   13      ar
    16   13   14       1
    17   13   15      ar
    18   15   16      ar
    19   16   17       1
    20   17   18       1
    21   17   19       1
    22   19   20       1
    23   20   21       1
    24   20   22       1
    25   22   23       1
    26   22   24       1
    27   24   25       1
    28   24   26       1
    29   26   27       1
    30   27   28       1
    31   28   29      ar
    32   28   30      ar
    33   28   31      ar
    34    4   32       1
    35   10   33       1
    36   12   34       1
    37   12   35       1
    38   12   36       1
    39   14   37       1
    40   14   38       1
    41   14   39       1
    42   15   40       1
    43   19   41       1
    44   19   42       1
    45   20   43       1
    46   21   44       1
    47   22   45       1
    48   23   46       1
    49   24   47       1
    50   25   48       1
    51   26   49       1
    52   26   50       1
@<TRIPOS>SUBSTRUCTURE
     1 FMN162      1 GROUP             4 A     FMN     0 **** FMN A 162
