@<TRIPOS>MOLECULE
4ncl_GDP_1_ligand
   40    42     1     0     0
SMALL
NO_CHARGES


@<TRIPOS>ATOM
     1 PB         -12.4410   -14.5530    38.4490 P.3          1 GDP1001   0.0000
     2 O1B        -12.9560   -15.7920    39.1420 O.co2        1 GDP1001   0.0000
     3 O2B        -11.5430   -13.7690    39.3740 O.co2        1 GDP1001  -1.0000
     4 O3B        -13.6050   -13.6880    38.0300 O.co2        1 GDP1001  -1.0000
     5 O3A        -11.6240   -14.9770    37.1350 O.3          1 GDP1001   0.0000
     6 PA         -10.1240   -15.5390    37.2440 P.3          1 GDP1001   0.0000
     7 O1A         -9.1230   -14.4740    36.8690 O.co2        1 GDP1001   0.0000
     8 O2A         -9.8360   -16.0850    38.6230 O.co2        1 GDP1001  -1.0000
     9 O5'        -10.1200   -16.7160    36.1560 O.3          1 GDP1001   0.0000
    10 C5'        -11.1090   -16.7590    35.1340 C.3          1 GDP1001   0.0000
    11 C4'        -10.6870   -17.7960    34.1090 C.3          1 GDP1001   0.0000
    12 O4'        -11.0020   -17.2670    32.8200 O.3          1 GDP1001   0.0000
    13 C3'         -9.1850   -18.0320    34.1710 C.3          1 GDP1001   0.0000
    14 O3'         -8.8980   -19.4330    34.2570 O.3          1 GDP1001   0.0000
    15 C2'         -8.6220   -17.4650    32.8850 C.3          1 GDP1001   0.0000
    16 O2'         -7.8300   -18.4580    32.2280 O.3          1 GDP1001   0.0000
    17 C1'         -9.8250   -17.1010    32.0280 C.3          1 GDP1001   0.0000
    18 N9          -9.7420   -15.6890    31.5710 N.pl3        1 GDP1001   0.0000
    19 C8          -9.8240   -14.5690    32.3220 C.2          1 GDP1001   0.0000
    20 N7          -9.7130   -13.4550    31.5470 N.2          1 GDP1001   0.0000
    21 C5          -9.5650   -13.8620    30.2700 C.2          1 GDP1001   0.0000
    22 C6          -9.3960   -13.2250    28.9420 C.2          1 GDP1001   0.0000
    23 O6          -9.3630   -11.9820    28.8140 O.2          1 GDP1001   0.0000
    24 N1          -9.2810   -14.0230    27.8720 N.pl3        1 GDP1001   0.0000
    25 C2          -9.3090   -15.3660    27.9700 C.2          1 GDP1001   0.0000
    26 N2          -9.1810   -16.1150    26.8480 N.pl3        1 GDP1001   0.0000
    27 N3          -9.4560   -16.0140    29.1490 N.2          1 GDP1001   0.0000
    28 C4          -9.5870   -15.3300    30.3020 C.2          1 GDP1001   0.0000
    29 H5'1       -11.1839   -15.8624    34.6974 H            1 GDP1001   0.0000
    30 H5'2       -11.9923   -17.0126    35.5282 H            1 GDP1001   0.0000
    31 H4'        -11.1788   -18.6533    34.2611 H            1 GDP1001   0.0000
    32 H3'         -8.7946   -17.5529    34.9571 H            1 GDP1001   0.0000
    33 H5          -8.3430   -19.7084    33.4720 H            1 GDP1001   0.0000
    34 H2'         -8.0720   -16.6518    33.0752 H            1 GDP1001   0.0000
    35 H7          -8.2129   -18.6449    31.3233 H            1 GDP1001   0.0000
    36 H1'         -9.8669   -17.7080    31.2344 H            1 GDP1001   0.0000
    37 H9          -9.9494   -14.5594    33.3141 H            1 GDP1001   0.0000
    38 H10         -9.1705   -13.6071    26.9693 H            1 GDP1001   0.0000
    39 H11         -9.2003   -17.1130    26.9082 H            1 GDP1001   0.0000
    40 H12         -9.0673   -15.6697    25.9599 H            1 GDP1001   0.0000
@<TRIPOS>BOND
     1    1    2      ar
     2    1    3      ar
     3    1    4      ar
     4    1    5       1
     5    5    6       1
     6    6    7      ar
     7    6    8      ar
     8    6    9       1
     9    9   10       1
    10   10   11       1
    11   11   12       1
    12   11   13       1
    13   12   17       1
    14   13   14       1
    15   13   15       1
    16   15   16       1
    17   15   17       1
    18   17   18       1
    19   18   19       1
    20   18   28       1
    21   19   20       2
    22   20   21       1
    23   21   22       1
    24   21   28       2
    25   22   23       2
    26   22   24       1
    27   24   25       1
    28   25   26       1
    29   25   27       2
    30   27   28       1
    31   26   40       1
    32   26   39       1
    33   24   38       1
    34   10   29       1
    35   10   30       1
    36   11   31       1
    37   13   32       1
    38   14   33       1
    39   15   34       1
    40   16   35       1
    41   17   36       1
    42   19   37       1
@<TRIPOS>SUBSTRUCTURE
     1 GDP1001     1 GROUP             4 A     GDP     0 **** GDP A1001
