@<TRIPOS>MOLECULE
1mo9_KPC_1_ligand
   20    19     1     0     0
SMALL
NO_CHARGES


@<TRIPOS>ATOM
     1 CAK         25.8590    -2.4910    10.4330 C.3          1 KPC1015   0.0000
     2 CAJ         25.0350    -2.2760    11.7040 C.2          1 KPC1015   0.0000
     3 OAC         23.8620    -1.9060    11.6220 O.2          1 KPC1015   0.0000
     4 CAI         25.6770    -2.5120    13.0720 C.3          1 KPC1015   0.0000
     5 SAH         24.4450    -2.4000    14.4240 S.3          1 KPC1015   0.0000
     6 CAG         23.8590    -4.1260    14.4860 C.3          1 KPC1015   0.0000
     7 CAF         22.4920    -4.3100    13.8360 C.3          1 KPC1015   0.0000
     8 SAE         21.9590    -6.0530    13.8530 S.o2         1 KPC1015   0.0000
     9 OAD         22.9780    -6.8770    13.1260 O.co2        1 KPC1015   0.0000
    10 OAL         21.8410    -6.5270    15.2700 O.co2        1 KPC1015   0.0000
    11 OAB         20.6260    -6.1740    13.1790 O.co2        1 KPC1015  -1.0000
    12 HAK1        26.7813    -2.7881    10.6800 H            1 KPC1015   0.0000
    13 HAK2        25.4233    -3.1915     9.8678 H            1 KPC1015   0.0000
    14 HAK3        25.9109    -1.6339     9.9205 H            1 KPC1015   0.0000
    15 HAI1        26.3859    -1.8226    13.2210 H            1 KPC1015   0.0000
    16 HAI2        26.0899    -3.4227    13.0839 H            1 KPC1015   0.0000
    17 HAG1        23.7981    -4.4085    15.4433 H            1 KPC1015   0.0000
    18 HAG2        24.5201    -4.7051    14.0090 H            1 KPC1015   0.0000
    19 HAF1        22.5402    -3.9961    12.8878 H            1 KPC1015   0.0000
    20 HAF2        21.8206    -3.7619    14.3348 H            1 KPC1015   0.0000
@<TRIPOS>BOND
     1    1    2       1
     2    2    3       2
     3    2    4       1
     4    4    5       1
     5    5    6       1
     6    6    7       1
     7    7    8       1
     8    8    9      ar
     9    8   10      ar
    10    8   11      ar
    11    1   12       1
    12    1   13       1
    13    1   14       1
    14    4   15       1
    15    4   16       1
    16    6   17       1
    17    6   18       1
    18    7   19       1
    19    7   20       1
@<TRIPOS>SUBSTRUCTURE
     1 KPC1015     1 GROUP             4 A     KPC     0 **** KPC A1015
