@<TRIPOS>MOLECULE
4w9n_IMD_1_ligand
    9     9     1     0     0
SMALL
NO_CHARGES


@<TRIPOS>ATOM
     1 N1         -40.3820    -4.8010    26.2390 N.2          1 IMD1901   0.0000
     2 C2         -41.5890    -4.6710    25.6430 C.2          1 IMD1901   0.0000
     3 N3         -41.6030    -5.4340    24.5260 N.pl3        1 IMD1901   0.0000
     4 C4         -40.4070    -6.0470    24.4170 C.2          1 IMD1901   0.0000
     5 C5         -39.6340    -5.6480    25.4990 C.2          1 IMD1901   0.0000
     6 H1         -42.3448    -4.1054    25.9729 H            1 IMD1901   0.0000
     7 H2         -40.1279    -6.6742    23.6899 H            1 IMD1901   0.0000
     8 H3         -38.6962    -5.9348    25.6945 H            1 IMD1901   0.0000
     9 H4         -42.3691    -5.5274    23.8901 H            1 IMD1901   0.0000
@<TRIPOS>BOND
     1    1    2       2
     2    1    5       1
     3    2    3       1
     4    3    4       1
     5    4    5       2
     6    5    8       1
     7    2    6       1
     8    4    7       1
     9    3    9       1
@<TRIPOS>SUBSTRUCTURE
     1 IMD1901     1 GROUP             4 A     IMD     0 **** IMD A1901
