@<TRIPOS>MOLECULE
5mdh_NAD_1_ligand
   70    74     1     0     0
SMALL
NO_CHARGES


@<TRIPOS>ATOM
     1 PA          34.4790    25.7090    17.4710 P.3          1 NAD334   0.0000
     2 O1A         34.1500    27.0750    17.9470 O.co2        1 NAD334   0.0000
     3 O2A         35.9310    25.4540    17.6440 O.co2        1 NAD334  -1.0000
     4 O5B         33.5930    24.6750    18.3040 O.3          1 NAD334   0.0000
     5 C5B         34.1340    23.3870    18.7060 C.3          1 NAD334   0.0000
     6 C4B         33.8560    23.0650    20.1470 C.3          1 NAD334   0.0000
     7 O4B         34.2730    21.6700    20.3500 O.3          1 NAD334   0.0000
     8 C3B         34.5750    23.8860    21.2200 C.3          1 NAD334   0.0000
     9 O3B         33.7600    24.3670    22.2680 O.3          1 NAD334   0.0000
    10 C2B         35.5770    22.8890    21.8150 C.3          1 NAD334   0.0000
    11 O2B         36.0380    23.2060    23.1050 O.3          1 NAD334   0.0000
    12 C1B         34.7440    21.6060    21.7010 C.3          1 NAD334   0.0000
    13 N9A         35.4970    20.3620    21.8260 N.pl3        1 NAD334   0.0000
    14 C8A         36.7410    20.0790    21.3400 C.2          1 NAD334   0.0000
    15 N7A         37.1310    18.8350    21.6160 N.2          1 NAD334   0.0000
    16 C5A         36.0730    18.3010    22.3170 C.ar         1 NAD334   0.0000
    17 C6A         35.8770    17.0280    22.8820 C.ar         1 NAD334   0.0000
    18 N6A         36.7860    16.0640    22.8150 N.pl3        1 NAD334   0.0000
    19 N1A         34.6900    16.8240    23.5190 N.ar         1 NAD334   0.0000
    20 C2A         33.7630    17.8330    23.5650 C.ar         1 NAD334   0.0000
    21 N3A         33.8610    19.0270    23.0690 N.ar         1 NAD334   0.0000
    22 C4A         35.0500    19.2220    22.4560 C.ar         1 NAD334   0.0000
    23 O3          34.1010    25.4220    15.9460 O.3          1 NAD334   0.0000
    24 PN          33.0530    24.4410    15.2350 P.3          1 NAD334   0.0000
    25 O1N         32.8410    24.8610    13.8390 O.co2        1 NAD334   0.0000
    26 O2N         31.8230    24.5550    16.0660 O.co2        1 NAD334  -1.0000
    27 O5D         33.7810    23.0170    15.3710 O.3          1 NAD334   0.0000
    28 C5D         32.9520    21.8480    15.2660 C.3          1 NAD334   0.0000
    29 C4D         33.3180    20.9870    14.0930 C.3          1 NAD334   0.0000
    30 O4D         32.2270    20.9500    13.1240 O.3          1 NAD334   0.0000
    31 C3D         34.5860    21.3430    13.3110 C.3          1 NAD334   0.0000
    32 O3D         35.2980    20.1540    12.9740 O.3          1 NAD334   0.0000
    33 C2D         34.0000    21.9550    12.0270 C.3          1 NAD334   0.0000
    34 O2D         34.9360    21.8920    10.9490 O.3          1 NAD334   0.0000
    35 C1D         32.8310    20.9820    11.8390 C.3          1 NAD334   0.0000
    36 N1N         31.8340    21.4210    10.8750 N.ar         1 NAD334   1.0000
    37 C2N         31.2400    20.4780    10.1000 C.ar         1 NAD334   0.0000
    38 C3N         30.2920    20.8560     9.1900 C.ar         1 NAD334   0.0000
    39 C7N         29.4940    19.9440     8.2090 C.2          1 NAD334   0.0000
    40 O7N         28.8730    20.5290     7.3120 O.2          1 NAD334   0.0000
    41 N7N         29.5520    18.6230     8.4010 N.am         1 NAD334   0.0000
    42 C4N         29.9090    22.2040     8.9970 C.ar         1 NAD334   0.0000
    43 C5N         30.5920    23.0900     9.8280 C.ar         1 NAD334   0.0000
    44 C6N         31.5370    22.7990    10.7760 C.ar         1 NAD334   0.0000
    45 H5B1        35.1241    23.3982    18.5660 H            1 NAD334   0.0000
    46 H5B2        33.7246    22.6757    18.1346 H            1 NAD334   0.0000
    47 H4B         32.8704    23.1291    20.3036 H            1 NAD334   0.0000
    48 H3B         35.0649    24.6467    20.7942 H            1 NAD334   0.0000
    49 H5          33.3360    23.5951    22.7417 H            1 NAD334   0.0000
    50 H2B         36.3631    22.8178    21.2010 H            1 NAD334   0.0000
    51 H7          35.4355    22.7897    23.7859 H            1 NAD334   0.0000
    52 H1B         33.9784    21.6226    22.3441 H            1 NAD334   0.0000
    53 H8A         37.2994    20.7346    20.8317 H            1 NAD334   0.0000
    54 H6A1        36.6024    15.1738    23.2319 H            1 NAD334   0.0000
    55 H6A2        37.6548    16.2276    22.3476 H            1 NAD334   0.0000
    56 H2A         32.9076    17.6227    24.0384 H            1 NAD334   0.0000
    57 H5D1        32.0001    22.1379    15.1663 H            1 NAD334   0.0000
    58 H5D2        33.0505    21.3089    16.1025 H            1 NAD334   0.0000
    59 H4D         33.4368    20.0558    14.4376 H            1 NAD334   0.0000
    60 H3D         35.1602    21.9944    13.8070 H            1 NAD334   0.0000
    61 H17         36.1241    20.3934    12.4639 H            1 NAD334   0.0000
    62 H2D         33.6785    22.8895    12.1796 H            1 NAD334   0.0000
    63 H19         35.1367    22.8173    10.6273 H            1 NAD334   0.0000
    64 H1D         33.1723    20.0744    11.5946 H            1 NAD334   0.0000
    65 H2N         31.4935    19.5152    10.1938 H            1 NAD334   0.0000
    66 H7N1        29.0530    18.0068     7.7916 H            1 NAD334   0.0000
    67 H7N2        30.0944    18.2505     9.1541 H            1 NAD334   0.0000
    68 H4N         29.2191    22.4916     8.3326 H            1 NAD334   0.0000
    69 H5N         30.3641    24.0575     9.7188 H            1 NAD334   0.0000
    70 H6N         31.9751    23.4956    11.3441 H            1 NAD334   0.0000
@<TRIPOS>BOND
     1    1    2      ar
     2    1    3      ar
     3    1    4       1
     4    1   23       1
     5    4    5       1
     6    5    6       1
     7    6    7       1
     8    6    8       1
     9    7   12       1
    10    8    9       1
    11    8   10       1
    12   10   11       1
    13   10   12       1
    14   12   13       1
    15   13   14       1
    16   13   22       1
    17   14   15       2
    18   15   16       1
    19   16   17      ar
    20   16   22      ar
    21   17   18       1
    22   17   19      ar
    23   19   20      ar
    24   20   21      ar
    25   21   22      ar
    26   23   24       1
    27   24   25      ar
    28   24   26      ar
    29   24   27       1
    30   27   28       1
    31   28   29       1
    32   29   30       1
    33   29   31       1
    34   30   35       1
    35   31   32       1
    36   31   33       1
    37   33   34       1
    38   33   35       1
    39   35   36       1
    40   36   37      ar
    41   36   44      ar
    42   37   38      ar
    43   38   39       1
    44   38   42      ar
    45   39   40       2
    46   39   41      am
    47   42   43      ar
    48   43   44      ar
    49   44   70       1
    50    5   45       1
    51    5   46       1
    52    6   47       1
    53    8   48       1
    54    9   49       1
    55   10   50       1
    56   11   51       1
    57   12   52       1
    58   14   53       1
    59   18   54       1
    60   18   55       1
    61   20   56       1
    62   43   69       1
    63   28   57       1
    64   28   58       1
    65   29   59       1
    66   31   60       1
    67   32   61       1
    68   33   62       1
    69   34   63       1
    70   35   64       1
    71   37   65       1
    72   41   66       1
    73   41   67       1
    74   42   68       1
@<TRIPOS>SUBSTRUCTURE
     1 NAD334      1 GROUP             4 A     NAD     0 **** NAD A 334
