@<TRIPOS>MOLECULE
4amx_AFR_1_ligand
   21    21     1     0     0
SMALL
NO_CHARGES


@<TRIPOS>ATOM
     1 F1          52.1970    22.6580    43.1670 F            1 AFR1041   0.0000
     2 C5          53.2060    23.4730    43.4390 C.3          1 AFR1041   0.0000
     3 C4          54.2890    23.2390    42.3850 C.3          1 AFR1041   0.0000
     4 O4          54.8180    21.9200    42.5010 O.3          1 AFR1041   0.0000
     5 C6          53.6620    23.2060    44.8710 C.3          1 AFR1041   0.0000
     6 O6          54.6380    24.1580    45.3020 O.3          1 AFR1041   0.0000
     7 O5          52.7760    24.8310    43.3360 O.3          1 AFR1041   0.0000
     8 C1          52.5720    25.4080    42.0060 C.2          1 AFR1041   0.0000
     9 C2          53.0520    24.8040    40.8960 C.2          1 AFR1041   0.0000
    10 O2          52.9490    25.3770    39.8190 O.3          1 AFR1041   0.0000
    11 C3          53.6790    23.4340    40.9950 C.3          1 AFR1041   0.0000
    12 O3          54.6590    23.2210    39.9730 O.3          1 AFR1041   0.0000
    13 H1          55.0258    23.9021    42.5172 H            1 AFR1041   0.0000
    14 H2          55.5954    21.9268    43.1299 H            1 AFR1041   0.0000
    15 H3          54.0599    22.2898    44.9188 H            1 AFR1041   0.0000
    16 H4          52.8692    23.2572    45.4783 H            1 AFR1041   0.0000
    17 H5          55.4842    23.6824    45.5422 H            1 AFR1041   0.0000
    18 H6          52.0672    26.2666    41.9169 H            1 AFR1041   0.0000
    19 H7          53.2984    24.9452    38.9875 H            1 AFR1041   0.0000
    20 H8          52.9558    22.7536    40.8765 H            1 AFR1041   0.0000
    21 H9          54.2115    22.8719    39.1496 H            1 AFR1041   0.0000
@<TRIPOS>BOND
     1    1    2       1
     2    2    3       1
     3    2    5       1
     4    2    7       1
     5    3    4       1
     6    3   11       1
     7    5    6       1
     8    7    8       1
     9    8    9       2
    10    9   10       1
    11    9   11       1
    12   11   12       1
    13    3   13       1
    14    4   14       1
    15    5   15       1
    16    5   16       1
    17    6   17       1
    18    8   18       1
    19   10   19       1
    20   11   20       1
    21   12   21       1
@<TRIPOS>SUBSTRUCTURE
     1 AFR1041     1 GROUP             4 D     AFR     0 **** AFR D1041
