@<TRIPOS>MOLECULE
1dj2_GDP_2_ligand
   40    42     1     0     0
SMALL
NO_CHARGES


@<TRIPOS>ATOM
     1 PB          -7.5940    57.1960    65.1850 P.3          1 GDP600   0.0000
     2 O1B         -7.0700    56.4700    64.0350 O.co2        1 GDP600   0.0000
     3 O2B         -7.0600    56.9270    66.5180 O.co2        1 GDP600  -1.0000
     4 O3B         -7.4950    58.7090    64.8840 O.co2        1 GDP600  -1.0000
     5 O3A         -9.1870    56.9730    65.2570 O.3          1 GDP600   0.0000
     6 PA         -10.0950    56.5340    66.5150 P.3          1 GDP600   0.0000
     7 O1A         -9.2480    55.9540    67.5900 O.co2        1 GDP600   0.0000
     8 O2A        -11.0140    57.6240    66.8450 O.co2        1 GDP600  -1.0000
     9 O5'        -10.9080    55.3120    65.7890 O.3          1 GDP600   0.0000
    10 C5'        -12.1950    55.5650    65.1940 C.3          1 GDP600   0.0000
    11 C4'        -13.3330    54.8820    65.9860 C.3          1 GDP600   0.0000
    12 O4'        -14.1200    54.1860    65.0260 O.3          1 GDP600   0.0000
    13 C3'        -12.9050    53.8080    66.9570 C.3          1 GDP600   0.0000
    14 O3'        -13.7770    53.8370    68.0540 O.3          1 GDP600   0.0000
    15 C2'        -12.9840    52.4900    66.1870 C.3          1 GDP600   0.0000
    16 O2'        -13.1350    51.2620    66.9560 O.3          1 GDP600   0.0000
    17 C1'        -14.1740    52.7900    65.3180 C.3          1 GDP600   0.0000
    18 N9         -14.1550    52.1120    64.0400 N.pl3        1 GDP600   0.0000
    19 C8         -13.1250    51.6710    63.2530 C.2          1 GDP600   0.0000
    20 N7         -13.4740    51.0960    62.1430 N.2          1 GDP600   0.0000
    21 C5         -14.8650    51.1570    62.2080 C.2          1 GDP600   0.0000
    22 C6         -15.8540    50.6940    61.2860 C.2          1 GDP600   0.0000
    23 O6         -15.6860    50.1340    60.2160 O.2          1 GDP600   0.0000
    24 N1         -17.1610    50.9620    61.7490 N.pl3        1 GDP600   0.0000
    25 C2         -17.4800    51.5890    62.9400 C.2          1 GDP600   0.0000
    26 N2         -18.7720    51.7480    63.2080 N.pl3        1 GDP600   0.0000
    27 N3         -16.5600    52.0260    63.7970 N.2          1 GDP600   0.0000
    28 C4         -15.2850    51.7770    63.3700 C.2          1 GDP600   0.0000
    29 H5'1       -12.1945    55.2129    64.2580 H            1 GDP600   0.0000
    30 H5'2       -12.3571    56.5517    65.1789 H            1 GDP600   0.0000
    31 H4'        -13.8882    55.5693    66.4544 H            1 GDP600   0.0000
    32 H3'        -11.9664    53.9731    67.2599 H            1 GDP600   0.0000
    33 H5         -13.5102    53.1315    68.7106 H            1 GDP600   0.0000
    34 H2'        -12.1742    52.4080    65.6061 H            1 GDP600   0.0000
    35 H7         -13.1731    50.4809    66.3327 H            1 GDP600   0.0000
    36 H1'        -15.0189    52.5747    65.8076 H            1 GDP600   0.0000
    37 H9         -12.1669    51.7845    63.5161 H            1 GDP600   0.0000
    38 H10        -17.9207    50.6739    61.1661 H            1 GDP600   0.0000
    39 H11        -19.0553    52.1954    64.0563 H            1 GDP600   0.0000
    40 H12        -19.4608    51.4202    62.5614 H            1 GDP600   0.0000
@<TRIPOS>BOND
     1    1    2      ar
     2    1    3      ar
     3    1    4      ar
     4    1    5       1
     5    5    6       1
     6    6    7      ar
     7    6    8      ar
     8    6    9       1
     9    9   10       1
    10   10   11       1
    11   11   12       1
    12   11   13       1
    13   12   17       1
    14   13   14       1
    15   13   15       1
    16   15   16       1
    17   15   17       1
    18   17   18       1
    19   18   19       1
    20   18   28       1
    21   19   20       2
    22   20   21       1
    23   21   22       1
    24   21   28       2
    25   22   23       2
    26   22   24       1
    27   24   25       1
    28   25   26       1
    29   25   27       2
    30   27   28       1
    31   26   40       1
    32   26   39       1
    33   24   38       1
    34   10   29       1
    35   10   30       1
    36   11   31       1
    37   13   32       1
    38   14   33       1
    39   15   34       1
    40   16   35       1
    41   17   36       1
    42   19   37       1
@<TRIPOS>SUBSTRUCTURE
     1 GDP600      1 GROUP             4 B     GDP     0 **** GDP B 600
