@<TRIPOS>MOLECULE
5dbj_FAD_1_ligand
   84    89     1     0     0
SMALL
NO_CHARGES


@<TRIPOS>ATOM
     1 PA          29.4020   -41.9300     0.0960 P.3          1 FAD501   0.0000
     2 O1A         28.7470   -42.2120     1.4250 O.co2        1 FAD501   0.0000
     3 O2A         29.8120   -40.5340    -0.2710 O.co2        1 FAD501  -1.0000
     4 O5B         28.3760   -42.4140    -1.0330 O.3          1 FAD501   0.0000
     5 C5B         28.0380   -43.7810    -1.1600 C.3          1 FAD501   0.0000
     6 C4B         26.8430   -43.8510    -2.0870 C.3          1 FAD501   0.0000
     7 O4B         26.5660   -45.2140    -2.4010 O.3          1 FAD501   0.0000
     8 C3B         25.5980   -43.2670    -1.4410 C.3          1 FAD501   0.0000
     9 O3B         25.0360   -42.2660    -2.2910 O.3          1 FAD501   0.0000
    10 C2B         24.6560   -44.4390    -1.2560 C.3          1 FAD501   0.0000
    11 O2B         23.3040   -44.0620    -1.5390 O.3          1 FAD501   0.0000
    12 C1B         25.1840   -45.4830    -2.2320 C.3          1 FAD501   0.0000
    13 N9A         25.0150   -46.8840    -1.7870 N.pl3        1 FAD501   0.0000
    14 C8A         25.3770   -47.4130    -0.6050 C.2          1 FAD501   0.0000
    15 N7A         25.0540   -48.7280    -0.5590 N.2          1 FAD501   0.0000
    16 C5A         24.4860   -49.0500    -1.7350 C.ar         1 FAD501   0.0000
    17 C6A         23.9130   -50.2680    -2.3580 C.ar         1 FAD501   0.0000
    18 N6A         23.9010   -51.4320    -1.6730 N.pl3        1 FAD501   0.0000
    19 N1A         23.4160   -50.1730    -3.6140 N.ar         1 FAD501   0.0000
    20 C2A         23.4340   -49.0050    -4.3000 C.ar         1 FAD501   0.0000
    21 N3A         23.9330   -47.8610    -3.7900 N.ar         1 FAD501   0.0000
    22 C4A         24.4630   -47.8270    -2.5410 C.ar         1 FAD501   0.0000
    23 N1          34.7540   -35.7370     4.6840 N.2          1 FAD501   0.0000
    24 C2          35.3730   -34.5940     4.3070 C.2          1 FAD501   0.0000
    25 O2          36.0550   -34.6090     3.2540 O.2          1 FAD501   0.0000
    26 N3          35.2800   -33.4570     5.0310 N.pl3        1 FAD501   0.0000
    27 C4          34.5630   -33.3760     6.1680 C.2          1 FAD501   0.0000
    28 O4          34.4990   -32.3130     6.8230 O.2          1 FAD501   0.0000
    29 C4X         33.8720   -34.5980     6.6490 C.2          1 FAD501   0.0000
    30 N5          33.1270   -34.6130     7.7770 N.2          1 FAD501   0.0000
    31 C5X         32.4710   -35.7250     8.1810 C.ar         1 FAD501   0.0000
    32 C6          31.7310   -35.6810     9.3640 C.ar         1 FAD501   0.0000
    33 C7          31.0580   -36.8120     9.8290 C.ar         1 FAD501   0.0000
    34 C7M         30.2660   -36.7220    11.1090 C.3          1 FAD501   0.0000
    35 C8          31.1420   -38.0800     9.0490 C.ar         1 FAD501   0.0000
    36 C8M         30.4440   -39.3430     9.4880 C.3          1 FAD501   0.0000
    37 C9          31.8900   -38.1250     7.8780 C.ar         1 FAD501   0.0000
    38 C9A         32.5730   -36.9990     7.3950 C.ar         1 FAD501   0.0000
    39 N10         33.3430   -37.0000     6.1910 N.pl3        1 FAD501   0.0000
    40 C10         34.0020   -35.8110     5.8070 C.2          1 FAD501   0.0000
    41 C1'         33.5280   -38.1940     5.3460 C.3          1 FAD501   0.0000
    42 C2'         32.7380   -38.1830     4.0390 C.3          1 FAD501   0.0000
    43 O2'         31.3510   -37.9470     4.3140 O.3          1 FAD501   0.0000
    44 C3'         32.9080   -39.5160     3.2930 C.3          1 FAD501   0.0000
    45 O3'         34.2650   -39.9620     3.4180 O.3          1 FAD501   0.0000
    46 C4'         32.5150   -39.3820     1.8180 C.3          1 FAD501   0.0000
    47 O4'         31.0950   -39.5190     1.7380 O.3          1 FAD501   0.0000
    48 C5'         33.1630   -40.3750     0.8490 C.3          1 FAD501   0.0000
    49 O5'         32.4130   -41.5840     0.8530 O.3          1 FAD501   0.0000
    50 P           32.1400   -42.4840    -0.4510 P.3          1 FAD501   0.0000
    51 O1P         33.0040   -43.7130    -0.3430 O.co2        1 FAD501   0.0000
    52 O2P         32.1920   -41.6780    -1.7220 O.co2        1 FAD501  -1.0000
    53 O3P         30.6290   -42.9470    -0.1440 O.3          1 FAD501   0.0000
    54 H5B1        27.8030   -44.1622    -0.2659 H            1 FAD501   0.0000
    55 H5B2        28.8055   -44.2909    -1.5485 H            1 FAD501   0.0000
    56 H4B         27.0460   -43.3509    -2.9288 H            1 FAD501   0.0000
    57 H3B         25.8283   -42.8704    -0.5524 H            1 FAD501   0.0000
    58 H5          24.7916   -42.6744    -3.1705 H            1 FAD501   0.0000
    59 H2B         24.7234   -44.7844    -0.3200 H            1 FAD501   0.0000
    60 H7          23.2376   -43.7441    -2.4848 H            1 FAD501   0.0000
    61 H1B         24.7224   -45.3656    -3.1113 H            1 FAD501   0.0000
    62 H8A         25.8214   -46.9078     0.1348 H            1 FAD501   0.0000
    63 H6A1        23.5151   -52.2543    -2.0912 H            1 FAD501   0.0000
    64 H6A2        24.2780   -51.4715    -0.7476 H            1 FAD501   0.0000
    65 H2A         23.0600   -48.9906    -5.2273 H            1 FAD501   0.0000
    66 H13         35.7632   -32.6427     4.7095 H            1 FAD501   0.0000
    67 H14         31.6825   -34.8286     9.8847 H            1 FAD501   0.0000
    68 H7M1        29.8468   -37.6086    11.3047 H            1 FAD501   0.0000
    69 H7M2        30.8748   -36.4680    11.8605 H            1 FAD501   0.0000
    70 H7M3        29.5511   -36.0297    11.0107 H            1 FAD501   0.0000
    71 H8M1        30.6279   -40.0719     8.8286 H            1 FAD501   0.0000
    72 H8M2        30.7826   -39.6151    10.3887 H            1 FAD501   0.0000
    73 H8M3        29.4587   -39.1793     9.5377 H            1 FAD501   0.0000
    74 H21         31.9425   -38.9827     7.3665 H            1 FAD501   0.0000
    75 H1'1        33.2453   -38.9951     5.8735 H            1 FAD501   0.0000
    76 H1'2        34.4996   -38.2686     5.1215 H            1 FAD501   0.0000
    77 H2'         33.0823   -37.4436     3.4604 H            1 FAD501   0.0000
    78 H25         31.2652   -37.3858     5.1372 H            1 FAD501   0.0000
    79 H3'         32.3109   -40.1956     3.7192 H            1 FAD501   0.0000
    80 H27         34.2909   -40.9614     3.3949 H            1 FAD501   0.0000
    81 H4'         32.7531   -38.4582     1.5180 H            1 FAD501   0.0000
    82 H29         30.8677   -40.3001     1.1565 H            1 FAD501   0.0000
    83 H5'1        34.1017   -40.5620     1.1387 H            1 FAD501   0.0000
    84 H5'2        33.1696   -39.9878    -0.0730 H            1 FAD501   0.0000
@<TRIPOS>BOND
     1    1    2      ar
     2    1    3      ar
     3    1    4       1
     4    1   53       1
     5    4    5       1
     6    5    6       1
     7    6    7       1
     8    6    8       1
     9    7   12       1
    10    8    9       1
    11    8   10       1
    12   10   11       1
    13   10   12       1
    14   12   13       1
    15   13   14       1
    16   13   22       1
    17   14   15       2
    18   15   16       1
    19   16   17      ar
    20   16   22      ar
    21   17   18       1
    22   17   19      ar
    23   19   20      ar
    24   20   21      ar
    25   21   22      ar
    26   23   24       1
    27   23   40       2
    28   24   25       2
    29   24   26       1
    30   26   27       1
    31   27   28       2
    32   27   29       1
    33   29   30       2
    34   29   40       1
    35   30   31       1
    36   31   32      ar
    37   31   38      ar
    38   32   33      ar
    39   33   34       1
    40   33   35      ar
    41   35   36       1
    42   35   37      ar
    43   37   38      ar
    44   38   39       1
    45   39   40       1
    46   39   41       1
    47   41   42       1
    48   42   43       1
    49   42   44       1
    50   44   45       1
    51   44   46       1
    52   46   47       1
    53   46   48       1
    54   48   49       1
    55   49   50       1
    56   50   51      ar
    57   50   52      ar
    58   50   53       1
    59   48   84       1
    60    5   54       1
    61    5   55       1
    62    6   56       1
    63    8   57       1
    64    9   58       1
    65   10   59       1
    66   11   60       1
    67   12   61       1
    68   14   62       1
    69   18   63       1
    70   18   64       1
    71   20   65       1
    72   26   66       1
    73   32   67       1
    74   34   68       1
    75   34   69       1
    76   34   70       1
    77   36   71       1
    78   36   72       1
    79   36   73       1
    80   37   74       1
    81   41   75       1
    82   41   76       1
    83   42   77       1
    84   43   78       1
    85   44   79       1
    86   45   80       1
    87   46   81       1
    88   47   82       1
    89   48   83       1
@<TRIPOS>SUBSTRUCTURE
     1 FAD501      1 GROUP             4 A     FAD     0 **** FAD A 501
