@<TRIPOS>MOLECULE
3rba_COD_1_ligand
   77    79     1     0     0
SMALL
NO_CHARGES


@<TRIPOS>ATOM
     1 N1           1.5970    40.5290    13.1900 N.ar         1 COD3000   0.0000
     2 C2           0.2660    40.6470    13.3690 C.ar         1 COD3000   0.0000
     3 N3          -0.5780    41.0510    12.4040 N.ar         1 COD3000   0.0000
     4 C4          -0.0930    41.3870    11.1870 C.ar         1 COD3000   0.0000
     5 C5           1.3450    41.3010    10.9240 C.ar         1 COD3000   0.0000
     6 C6           2.2010    40.8400    12.0270 C.ar         1 COD3000   0.0000
     7 N7           3.5400    40.7380    11.8520 N.pl3        1 COD3000   0.0000
     8 N8           1.5440    41.6850     9.6550 N.2          1 COD3000   0.0000
     9 C9           0.3360    41.9890     9.1310 C.2          1 COD3000   0.0000
    10 N10         -0.6250    41.8190    10.0590 N.pl3        1 COD3000   0.0000
    11 C11         -2.0570    42.0430     9.8830 C.3          1 COD3000   0.0000
    12 C12         -2.3110    43.4610     9.4310 C.3          1 COD3000   0.0000
    13 O13         -2.4200    44.3260    10.5590 O.3          1 COD3000   0.0000
    14 C14         -3.6410    43.3200     8.7390 C.3          1 COD3000   0.0000
    15 O15         -4.6180    43.5390     9.7560 O.3          1 COD3000   0.0000
    16 C16         -3.6790    41.8630     8.2810 C.3          1 COD3000   0.0000
    17 O17         -2.5390    41.2170     8.8350 O.3          1 COD3000   0.0000
    18 C18         -3.5890    41.6790     6.7770 C.3          1 COD3000   0.0000
    19 O19         -2.4290    42.3480     6.2990 O.3          1 COD3000   0.0000
    20 P20         -2.5170    42.8730     4.7950 P.3          1 COD3000   0.0000
    21 O21         -1.6940    44.1280     4.6310 O.co2        1 COD3000   0.0000
    22 O22         -2.3110    41.6330     3.9540 O.co2        1 COD3000  -1.0000
    23 O23         -4.0840    43.2400     4.6950 O.3          1 COD3000   0.0000
    24 P24         -4.6490    44.6860     4.2530 P.3          1 COD3000   0.0000
    25 O25         -4.4590    45.6430     5.4080 O.co2        1 COD3000   0.0000
    26 O26         -4.0900    45.0070     2.8900 O.co2        1 COD3000  -1.0000
    27 O27         -6.2230    44.3920     4.1170 O.3          1 COD3000   0.0000
    28 C28         -7.1770    45.4410     3.9640 C.3          1 COD3000   0.0000
    29 C29         -8.5320    44.8360     3.6310 C.3          1 COD3000   0.0000
    30 C30         -8.3790    43.9220     2.4260 C.3          1 COD3000   0.0000
    31 C31         -9.0590    44.0450     4.8210 C.3          1 COD3000   0.0000
    32 C32         -9.4920    45.9730     3.2830 C.3          1 COD3000   0.0000
    33 O33         -8.9660    46.6830     2.1590 O.3          1 COD3000   0.0000
    34 C34        -10.8620    45.4720     2.9310 C.2          1 COD3000   0.0000
    35 O35        -11.6550    45.1610     3.7990 O.2          1 COD3000   0.0000
    36 N36        -11.1560    45.4100     1.6370 N.am         1 COD3000   0.0000
    37 C37        -12.4700    45.0140     1.1630 C.3          1 COD3000   0.0000
    38 C38        -13.3940    46.1990     0.8820 C.3          1 COD3000   0.0000
    39 C39        -14.0140    46.7000     2.1700 C.2          1 COD3000   0.0000
    40 O40        -14.5480    45.9360     2.9590 O.2          1 COD3000   0.0000
    41 N41        -13.9500    48.0100     2.3840 N.am         1 COD3000   0.0000
    42 C42        -14.6000    48.6130     3.5330 C.3          1 COD3000   0.0000
    43 C43        -13.6510    48.6950     4.7220 C.3          1 COD3000   0.0000
    44 S44        -14.5360    49.3690     6.1490 S.3          1 COD3000   0.0000
    45 H1          -0.1132    40.4222    14.2666 H            1 COD3000   0.0000
    46 H2           3.9490    40.9791    10.9719 H            1 COD3000   0.0000
    47 H3           4.1197    40.4216    12.6029 H            1 COD3000   0.0000
    48 H4           0.1788    42.2952     8.1921 H            1 COD3000   0.0000
    49 H5          -2.5483    41.8530    10.7330 H            1 COD3000   0.0000
    50 H6          -1.6026    43.7743     8.7986 H            1 COD3000   0.0000
    51 H7          -1.8575    43.9719    11.3062 H            1 COD3000   0.0000
    52 H8          -3.7398    43.9588     7.9760 H            1 COD3000   0.0000
    53 H9          -4.1590    43.7210    10.6256 H            1 COD3000   0.0000
    54 H10         -4.5109    41.4259     8.6228 H            1 COD3000   0.0000
    55 H11         -4.4024    42.0657     6.3424 H            1 COD3000   0.0000
    56 H12         -3.5272    40.7045     6.5613 H            1 COD3000   0.0000
    57 H13         -6.8905    46.0489     3.2235 H            1 COD3000   0.0000
    58 H14         -7.2425    45.9610     4.8157 H            1 COD3000   0.0000
    59 H15         -9.2654    43.5188     2.1988 H            1 COD3000   0.0000
    60 H16         -8.0439    44.4513     1.6465 H            1 COD3000   0.0000
    61 H17         -7.7270    43.1946     2.6400 H            1 COD3000   0.0000
    62 H18         -9.9494    43.6518     4.5919 H            1 COD3000   0.0000
    63 H19         -8.4176    43.3107     5.0436 H            1 COD3000   0.0000
    64 H20         -9.1559    44.6531     5.6089 H            1 COD3000   0.0000
    65 H21         -9.5601    46.5957     4.0625 H            1 COD3000   0.0000
    66 H22         -9.5840    47.4315     1.9186 H            1 COD3000   0.0000
    67 H23        -10.4501    45.6434     0.9683 H            1 COD3000   0.0000
    68 H24        -12.8974    44.4362     1.8583 H            1 COD3000   0.0000
    69 H25        -12.3583    44.4913     0.3179 H            1 COD3000   0.0000
    70 H26        -14.1195    45.9105     0.2571 H            1 COD3000   0.0000
    71 H27        -12.8657    46.9367     0.4615 H            1 COD3000   0.0000
    72 H28        -13.4461    48.5893     1.7433 H            1 COD3000   0.0000
    73 H29        -15.3936    48.0599     3.7865 H            1 COD3000   0.0000
    74 H30        -14.9003    49.5356     3.2910 H            1 COD3000   0.0000
    75 H31        -12.8812    49.2913     4.4943 H            1 COD3000   0.0000
    76 H32        -13.3108    47.7806     4.9414 H            1 COD3000   0.0000
    77 H33        -13.9150    49.4238     6.9309 H            1 COD3000   0.0000
@<TRIPOS>BOND
     1    1    2      ar
     2    1    6      ar
     3    2    3      ar
     4    3    4      ar
     5    4    5      ar
     6    4   10       1
     7    5    6      ar
     8    5    8       1
     9    6    7       1
    10    8    9       2
    11    9   10       1
    12   10   11       1
    13   11   12       1
    14   11   17       1
    15   12   13       1
    16   12   14       1
    17   14   15       1
    18   14   16       1
    19   16   17       1
    20   16   18       1
    21   18   19       1
    22   19   20       1
    23   20   21      ar
    24   20   22      ar
    25   20   23       1
    26   23   24       1
    27   24   25      ar
    28   24   26      ar
    29   24   27       1
    30   27   28       1
    31   28   29       1
    32   29   30       1
    33   29   31       1
    34   29   32       1
    35   32   33       1
    36   32   34       1
    37   34   35       2
    38   34   36      am
    39   36   37       1
    40   37   38       1
    41   38   39       1
    42   39   40       2
    43   39   41      am
    44   41   42       1
    45   42   43       1
    46   43   44       1
    47    2   45       1
    48    7   46       1
    49    7   47       1
    50    9   48       1
    51   11   49       1
    52   12   50       1
    53   13   51       1
    54   14   52       1
    55   15   53       1
    56   16   54       1
    57   18   55       1
    58   18   56       1
    59   44   77       1
    60   43   76       1
    61   28   57       1
    62   28   58       1
    63   30   59       1
    64   30   60       1
    65   30   61       1
    66   31   62       1
    67   31   63       1
    68   31   64       1
    69   32   65       1
    70   33   66       1
    71   36   67       1
    72   37   68       1
    73   37   69       1
    74   38   70       1
    75   38   71       1
    76   41   72       1
    77   42   73       1
    78   42   74       1
    79   43   75       1
@<TRIPOS>SUBSTRUCTURE
     1 COD3000     1 GROUP             4 A     COD     0 **** COD A3000
