@<TRIPOS>MOLECULE
1rjg_SAH_1_ligand
   46    48     1     0     0
SMALL
NO_CHARGES


@<TRIPOS>ATOM
     1 N           18.4610    39.0210    33.1980 N.4          1 SAH335   1.0000
     2 CA          18.7550    39.6700    34.4680 C.3          1 SAH335   0.0000
     3 CB          17.9140    40.9300    34.6350 C.3          1 SAH335   0.0000
     4 CG          16.4140    40.7430    34.4300 C.3          1 SAH335   0.0000
     5 SD          15.5420    42.3250    34.2750 S.3          1 SAH335   0.0000
     6 C           18.5410    38.7310    35.6500 C.2          1 SAH335   0.0000
     7 O           17.7510    37.7900    35.5880 O.co2        1 SAH335   0.0000
     8 OXT         19.1620    38.8890    36.7010 O.co2        1 SAH335  -1.0000
     9 C5'         15.8200    42.4870    32.4860 C.3          1 SAH335   0.0000
    10 C4'         16.9120    43.4850    32.1070 C.3          1 SAH335   0.0000
    11 O4'         16.8730    43.7440    30.7150 O.3          1 SAH335   0.0000
    12 C3'         16.7830    44.8360    32.8060 C.3          1 SAH335   0.0000
    13 O3'         17.8720    45.0390    33.6780 O.3          1 SAH335   0.0000
    14 C2'         16.7720    45.8650    31.6930 C.3          1 SAH335   0.0000
    15 O2'         17.5980    46.9700    31.9770 O.3          1 SAH335   0.0000
    16 C1'         17.2650    45.0830    30.4850 C.3          1 SAH335   0.0000
    17 N9          16.7260    45.6220    29.2220 N.pl3        1 SAH335   0.0000
    18 C8          15.4140    45.6670    28.8250 C.2          1 SAH335   0.0000
    19 N7          15.3610    46.2420    27.6010 N.2          1 SAH335   0.0000
    20 C5          16.6150    46.5630    27.2130 C.ar         1 SAH335   0.0000
    21 C6          17.1240    47.1620    26.0640 C.ar         1 SAH335   0.0000
    22 N6          16.3060    47.5380    25.0860 N.pl3        1 SAH335   0.0000
    23 N1          18.4870    47.3690    25.9490 N.ar         1 SAH335   0.0000
    24 C2          19.3400    46.9780    26.9650 C.ar         1 SAH335   0.0000
    25 N3          18.8230    46.3840    28.1020 N.ar         1 SAH335   0.0000
    26 C4          17.4850    46.1790    28.2250 C.ar         1 SAH335   0.0000
    27 H1          19.0214    38.1978    33.1067 H            1 SAH335   0.0000
    28 H2          17.4933    38.7705    33.1678 H            1 SAH335   0.0000
    29 HA          19.7176    39.9409    34.4600 H            1 SAH335   0.0000
    30 HB1         18.2348    41.6060    33.9716 H            1 SAH335   0.0000
    31 HB2         18.0585    41.2776    35.5615 H            1 SAH335   0.0000
    32 HG1         16.0414    40.2452    35.2132 H            1 SAH335   0.0000
    33 HG2         16.2667    40.2110    33.5962 H            1 SAH335   0.0000
    34 H5'1        14.9643    42.7831    32.0617 H            1 SAH335   0.0000
    35 H5'2        16.0773    41.5900    32.1266 H            1 SAH335   0.0000
    36 H4'         17.8016    43.0893    32.3350 H            1 SAH335   0.0000
    37 H3'         15.9242    44.8759    33.3168 H            1 SAH335   0.0000
    38 H12         18.7248    45.0206    33.1561 H            1 SAH335   0.0000
    39 H2'         15.8356    46.1772    31.5325 H            1 SAH335   0.0000
    40 H14         18.5202    46.7941    31.6326 H            1 SAH335   0.0000
    41 H1'         18.2636    45.1276    30.4560 H            1 SAH335   0.0000
    42 H16         14.6312    45.3325    29.3497 H            1 SAH335   0.0000
    43 H17         16.6758    47.9679    24.2624 H            1 SAH335   0.0000
    44 H18         15.3208    47.3909    25.1739 H            1 SAH335   0.0000
    45 H19         20.3255    47.1240    26.8780 H            1 SAH335   0.0000
    46 H20         18.6664    39.6490    32.4473 H            1 SAH335   0.0000
@<TRIPOS>BOND
     1    1    2       1
     2    2    3       1
     3    2    6       1
     4    3    4       1
     5    4    5       1
     6    5    9       1
     7    6    7      ar
     8    6    8      ar
     9    9   10       1
    10   10   11       1
    11   10   12       1
    12   11   16       1
    13   12   13       1
    14   12   14       1
    15   14   15       1
    16   14   16       1
    17   16   17       1
    18   17   18       1
    19   17   26       1
    20   18   19       2
    21   19   20       1
    22   20   21      ar
    23   20   26      ar
    24   21   22       1
    25   21   23      ar
    26   23   24      ar
    27   24   25      ar
    28   25   26      ar
    29    1   27       1
    30    1   28       1
    31    2   29       1
    32    3   30       1
    33    3   31       1
    34    4   32       1
    35    4   33       1
    36    1   46       1
    37    9   34       1
    38    9   35       1
    39   10   36       1
    40   12   37       1
    41   13   38       1
    42   14   39       1
    43   15   40       1
    44   16   41       1
    45   18   42       1
    46   22   43       1
    47   22   44       1
    48   24   45       1
@<TRIPOS>SUBSTRUCTURE
     1 SAH335      1 GROUP             4 A     SAH     0 **** SAH A 335
