@<TRIPOS>MOLECULE
1szj_NAD_2_ligand
   70    74     1     0     0
SMALL
NO_CHARGES


@<TRIPOS>ATOM
     1 PA           4.3200    -9.2650    18.1790 P.3          1 NAD335   0.0000
     2 O1A          3.9230    -7.9230    18.6730 O.co2        1 NAD335   0.0000
     3 O2A          3.6140    -9.9140    17.0460 O.co2        1 NAD335  -1.0000
     4 O5B          4.3650   -10.3200    19.3930 O.3          1 NAD335   0.0000
     5 C5B          4.6040    -9.8940    20.7350 C.3          1 NAD335   0.0000
     6 C4B          3.7340   -10.8220    21.5710 C.3          1 NAD335   0.0000
     7 O4B          4.1720   -10.8990    22.9350 O.3          1 NAD335   0.0000
     8 C3B          2.2750   -10.3550    21.5570 C.3          1 NAD335   0.0000
     9 O3B          1.3550   -11.3850    21.1550 O.3          1 NAD335   0.0000
    10 C2B          2.0590    -9.8620    22.9790 C.3          1 NAD335   0.0000
    11 O2B          0.6860    -9.9330    23.3990 O.3          1 NAD335   0.0000
    12 C1B          2.9630   -10.8320    23.7070 C.3          1 NAD335   0.0000
    13 N9A          3.1860   -10.4570    25.1170 N.pl3        1 NAD335   0.0000
    14 C8A          3.3710    -9.2090    25.5810 C.2          1 NAD335   0.0000
    15 N7A          3.6990    -9.2370    26.8840 N.2          1 NAD335   0.0000
    16 C5A          3.7000   -10.5280    27.1900 C.ar         1 NAD335   0.0000
    17 C6A          4.1400   -11.0000    28.4080 C.ar         1 NAD335   0.0000
    18 N6A          4.4310   -10.1590    29.3970 N.pl3        1 NAD335   0.0000
    19 N1A          4.2460   -12.3360    28.4870 N.ar         1 NAD335   0.0000
    20 C2A          3.9360   -13.1120    27.4510 C.ar         1 NAD335   0.0000
    21 N3A          3.5190   -12.6490    26.2750 N.ar         1 NAD335   0.0000
    22 C4A          3.3980   -11.3250    26.1170 C.ar         1 NAD335   0.0000
    23 O3           5.8720    -9.2550    17.7820 O.3          1 NAD335   0.0000
    24 PN           6.8340   -10.2550    16.9850 P.3          1 NAD335   0.0000
    25 O1N          6.3630   -11.6670    17.0610 O.co2        1 NAD335   0.0000
    26 O2N          7.0990    -9.6790    15.6470 O.co2        1 NAD335  -1.0000
    27 O5D          8.1750   -10.0730    17.8410 O.3          1 NAD335   0.0000
    28 C5D          8.4410   -10.7250    19.0950 C.3          1 NAD335   0.0000
    29 C4D          9.9560   -10.7670    19.2570 C.3          1 NAD335   0.0000
    30 O4D         10.5200   -11.4860    18.1360 O.3          1 NAD335   0.0000
    31 C3D         10.5660    -9.3800    19.1750 C.3          1 NAD335   0.0000
    32 O3D         11.6930    -9.3010    20.0510 O.3          1 NAD335   0.0000
    33 C2D         11.0160    -9.2260    17.7220 C.3          1 NAD335   0.0000
    34 O2D         12.0950    -8.3050    17.5550 O.3          1 NAD335   0.0000
    35 C1D         11.4450   -10.6440    17.4410 C.3          1 NAD335   0.0000
    36 N1N         11.5490   -10.9360    15.9920 N.ar         1 NAD335   1.0000
    37 C2N         10.5400   -10.5490    15.0980 C.ar         1 NAD335   0.0000
    38 C3N         10.6830   -10.8200    13.7440 C.ar         1 NAD335   0.0000
    39 C7N          9.6490   -10.2750    12.7430 C.2          1 NAD335   0.0000
    40 O7N          9.9150   -10.2200    11.5470 O.2          1 NAD335   0.0000
    41 N7N          8.5490    -9.7210    13.2700 N.am         1 NAD335   0.0000
    42 C4N         11.8310   -11.4740    13.2730 C.ar         1 NAD335   0.0000
    43 C5N         12.8480   -11.8320    14.1470 C.ar         1 NAD335   0.0000
    44 C6N         12.7010   -11.5750    15.5030 C.ar         1 NAD335   0.0000
    45 H5B1         4.3303    -8.9404    20.8601 H            1 NAD335   0.0000
    46 H5B2         5.5691    -9.9981    20.9752 H            1 NAD335   0.0000
    47 H4B          3.7763   -11.7385    21.1732 H            1 NAD335   0.0000
    48 H3B          2.1888    -9.5811    20.9295 H            1 NAD335   0.0000
    49 H5           1.0477   -11.8907    21.9612 H            1 NAD335   0.0000
    50 H2B          2.4030    -8.9282    23.0774 H            1 NAD335   0.0000
    51 H7           0.5121   -10.8227    23.8211 H            1 NAD335   0.0000
    52 H1B          2.5313   -11.7338    23.6889 H            1 NAD335   0.0000
    53 H8A          3.2777    -8.3772    25.0339 H            1 NAD335   0.0000
    54 H6A1         4.7494   -10.5125    30.2766 H            1 NAD335   0.0000
    55 H6A2         4.3313    -9.1733    29.2608 H            1 NAD335   0.0000
    56 H2A          4.0215   -14.1020    27.5630 H            1 NAD335   0.0000
    57 H5D1         8.0699   -11.6536    19.0857 H            1 NAD335   0.0000
    58 H5D2         8.0287   -10.2088    19.8457 H            1 NAD335   0.0000
    59 H4D         10.2047   -11.2094    20.1187 H            1 NAD335   0.0000
    60 H3D          9.8884    -8.6830    19.4094 H            1 NAD335   0.0000
    61 H17         12.0943    -8.3867    19.9963 H            1 NAD335   0.0000
    62 H2D         10.2435    -8.9711    17.1403 H            1 NAD335   0.0000
    63 H19         11.7290    -7.3875    17.3992 H            1 NAD335   0.0000
    64 H1D         12.3487   -10.7783    17.8476 H            1 NAD335   0.0000
    65 H2N          9.7227   -10.0808    15.4338 H            1 NAD335   0.0000
    66 H7N1         7.8403    -9.3489    12.6706 H            1 NAD335   0.0000
    67 H7N2         8.4366    -9.6796    14.2628 H            1 NAD335   0.0000
    68 H4N         11.9174   -11.6841    12.2992 H            1 NAD335   0.0000
    69 H5N         13.6783   -12.2707    13.8032 H            1 NAD335   0.0000
    70 H6N         13.4229   -11.8476    16.1390 H            1 NAD335   0.0000
@<TRIPOS>BOND
     1    1    2      ar
     2    1    3      ar
     3    1    4       1
     4    1   23       1
     5    4    5       1
     6    5    6       1
     7    6    7       1
     8    6    8       1
     9    7   12       1
    10    8    9       1
    11    8   10       1
    12   10   11       1
    13   10   12       1
    14   12   13       1
    15   13   14       1
    16   13   22       1
    17   14   15       2
    18   15   16       1
    19   16   17      ar
    20   16   22      ar
    21   17   18       1
    22   17   19      ar
    23   19   20      ar
    24   20   21      ar
    25   21   22      ar
    26   23   24       1
    27   24   25      ar
    28   24   26      ar
    29   24   27       1
    30   27   28       1
    31   28   29       1
    32   29   30       1
    33   29   31       1
    34   30   35       1
    35   31   32       1
    36   31   33       1
    37   33   34       1
    38   33   35       1
    39   35   36       1
    40   36   37      ar
    41   36   44      ar
    42   37   38      ar
    43   38   39       1
    44   38   42      ar
    45   39   40       2
    46   39   41      am
    47   42   43      ar
    48   43   44      ar
    49   44   70       1
    50    5   45       1
    51    5   46       1
    52    6   47       1
    53    8   48       1
    54    9   49       1
    55   10   50       1
    56   11   51       1
    57   12   52       1
    58   14   53       1
    59   18   54       1
    60   18   55       1
    61   20   56       1
    62   43   69       1
    63   28   57       1
    64   28   58       1
    65   29   59       1
    66   31   60       1
    67   32   61       1
    68   33   62       1
    69   34   63       1
    70   35   64       1
    71   37   65       1
    72   41   66       1
    73   41   67       1
    74   42   68       1
@<TRIPOS>SUBSTRUCTURE
     1 NAD335      1 GROUP             4 R     NAD     0 **** NAD R 335
