@<TRIPOS>MOLECULE
2hq9_FAD_1_ligand
   84    89     1     0     0
SMALL
NO_CHARGES


@<TRIPOS>ATOM
     1 PA          49.2470    50.5510    19.7440 P.3          1 FAD200   0.0000
     2 O1A         50.1040    49.6040    20.5640 O.co2        1 FAD200   0.0000
     3 O2A         49.7700    50.9230    18.3740 O.co2        1 FAD200  -1.0000
     4 O5B         48.7440    51.8580    20.5520 O.3          1 FAD200   0.0000
     5 C5B         48.1520    51.7520    21.8300 C.3          1 FAD200   0.0000
     6 C4B         47.4630    53.0780    22.1200 C.3          1 FAD200   0.0000
     7 O4B         46.6130    53.4860    21.0340 O.3          1 FAD200   0.0000
     8 C3B         46.5900    53.0030    23.3560 C.3          1 FAD200   0.0000
     9 O3B         46.5040    54.2950    23.9570 O.3          1 FAD200   0.0000
    10 C2B         45.2610    52.5630    22.7540 C.3          1 FAD200   0.0000
    11 O2B         44.1270    52.7980    23.5860 O.3          1 FAD200   0.0000
    12 C1B         45.2580    53.3380    21.4240 C.3          1 FAD200   0.0000
    13 N9A         44.5040    52.6400    20.3490 N.pl3        1 FAD200   0.0000
    14 C8A         44.8710    51.5430    19.6080 C.2          1 FAD200   0.0000
    15 N7A         43.8790    51.2530    18.7180 N.2          1 FAD200   0.0000
    16 C5A         42.8840    52.1420    18.8820 C.ar         1 FAD200   0.0000
    17 C6A         41.6350    52.3090    18.2740 C.ar         1 FAD200   0.0000
    18 N6A         41.1080    51.4280    17.4090 N.pl3        1 FAD200   0.0000
    19 N1A         40.8550    53.3520    18.6950 N.ar         1 FAD200   0.0000
    20 C2A         41.2710    54.1990    19.7030 C.ar         1 FAD200   0.0000
    21 N3A         42.4870    54.0210    20.3050 N.ar         1 FAD200   0.0000
    22 C4A         43.2730    53.0120    19.9010 C.ar         1 FAD200   0.0000
    23 N1          44.3240    46.4520    13.5080 N.2          1 FAD200   0.0000
    24 C2          45.0360    45.2910    13.3360 C.2          1 FAD200   0.0000
    25 O2          46.1530    45.2000    13.8460 O.2          1 FAD200   0.0000
    26 N3          44.5040    44.2660    12.5480 N.pl3        1 FAD200   0.0000
    27 C4          43.2340    44.3720    11.9650 C.2          1 FAD200   0.0000
    28 O4          42.7290    43.3990    11.4080 O.2          1 FAD200   0.0000
    29 C4X         42.4830    45.5370    12.1470 C.2          1 FAD200   0.0000
    30 N5          41.2110    45.6940    11.5820 N.2          1 FAD200   0.0000
    31 C5X         40.5000    46.8670    11.8040 C.ar         1 FAD200   0.0000
    32 C6          39.2320    47.0010    11.2490 C.ar         1 FAD200   0.0000
    33 C7          38.5040    48.1770    11.4430 C.ar         1 FAD200   0.0000
    34 C7M         37.0690    48.2330    10.9590 C.3          1 FAD200   0.0000
    35 C8          39.0710    49.2250    12.2070 C.ar         1 FAD200   0.0000
    36 C8M         38.3010    50.4800    12.5120 C.3          1 FAD200   0.0000
    37 C9          40.3430    49.0880    12.7550 C.ar         1 FAD200   0.0000
    38 C9A         41.0780    47.9070    12.5560 C.ar         1 FAD200   0.0000
    39 N10         42.3670    47.7490    13.0960 N.pl3        1 FAD200   0.0000
    40 C10         43.0480    46.5690    12.9230 C.2          1 FAD200   0.0000
    41 C1'         43.0810    48.7700    13.9870 C.3          1 FAD200   0.0000
    42 C2'         43.0060    48.3720    15.4790 C.3          1 FAD200   0.0000
    43 O2'         41.6820    48.5850    15.9440 O.3          1 FAD200   0.0000
    44 C3'         43.9990    49.1480    16.3530 C.3          1 FAD200   0.0000
    45 O3'         43.6900    50.5370    16.3550 O.3          1 FAD200   0.0000
    46 C4'         45.4710    48.9390    15.9090 C.3          1 FAD200   0.0000
    47 O4'         45.7630    47.5580    15.6680 O.3          1 FAD200   0.0000
    48 C5'         46.4440    49.4540    16.9600 C.3          1 FAD200   0.0000
    49 O5'         46.2300    48.6420    18.0860 O.3          1 FAD200   0.0000
    50 P           47.4220    48.3760    19.1100 P.3          1 FAD200   0.0000
    51 O1P         46.8760    47.5430    20.1900 O.co2        1 FAD200   0.0000
    52 O2P         48.5980    47.7080    18.3930 O.co2        1 FAD200  -1.0000
    53 O3P         47.7870    49.8320    19.5920 O.3          1 FAD200   0.0000
    54 H5B1        48.8544    51.5733    22.5189 H            1 FAD200   0.0000
    55 H5B2        47.4822    51.0095    21.8365 H            1 FAD200   0.0000
    56 H4B         48.1618    53.7790    22.2621 H            1 FAD200   0.0000
    57 H3B         46.9366    52.3245    24.0037 H            1 FAD200   0.0000
    58 H5          46.5859    54.9976    23.2501 H            1 FAD200   0.0000
    59 H2B         45.3109    51.5848    22.5525 H            1 FAD200   0.0000
    60 H7          43.7548    53.7060    23.3935 H            1 FAD200   0.0000
    61 H1B         44.8580    54.2425    21.5717 H            1 FAD200   0.0000
    62 H8A         45.7285    51.0378    19.7055 H            1 FAD200   0.0000
    63 H6A1        40.2096    51.6002    17.0050 H            1 FAD200   0.0000
    64 H6A2        41.6138    50.5995    17.1687 H            1 FAD200   0.0000
    65 H2A         40.6783    54.9493    19.9958 H            1 FAD200   0.0000
    66 H13         45.0427    43.4372    12.3967 H            1 FAD200   0.0000
    67 H14         38.8410    46.2546    10.7105 H            1 FAD200   0.0000
    68 H7M1        36.6820    49.1314    11.1668 H            1 FAD200   0.0000
    69 H7M2        37.0442    48.0797     9.9711 H            1 FAD200   0.0000
    70 H7M3        36.5339    47.5249    11.4197 H            1 FAD200   0.0000
    71 H8M1        38.8689    51.0948    13.0592 H            1 FAD200   0.0000
    72 H8M2        38.0486    50.9324    11.6566 H            1 FAD200   0.0000
    73 H8M3        37.4734    50.2475    13.0230 H            1 FAD200   0.0000
    74 H21         40.7359    49.8338    13.2931 H            1 FAD200   0.0000
    75 H1'1        42.6490    49.6639    13.8672 H            1 FAD200   0.0000
    76 H1'2        44.0413    48.8245    13.7133 H            1 FAD200   0.0000
    77 H2'         43.2138    47.3969    15.5558 H            1 FAD200   0.0000
    78 H25         41.2992    47.7198    16.2678 H            1 FAD200   0.0000
    79 H3'         43.9104    48.8123    17.2908 H            1 FAD200   0.0000
    80 H27         43.9700    50.9395    17.2265 H            1 FAD200   0.0000
    81 H4'         45.6217    49.4475    15.0612 H            1 FAD200   0.0000
    82 H29         45.1650    47.2121    14.9450 H            1 FAD200   0.0000
    83 H5'1        46.2528    50.4115    17.1762 H            1 FAD200   0.0000
    84 H5'2        47.3868    49.3667    16.6383 H            1 FAD200   0.0000
@<TRIPOS>BOND
     1    1    2      ar
     2    1    3      ar
     3    1    4       1
     4    1   53       1
     5    4    5       1
     6    5    6       1
     7    6    7       1
     8    6    8       1
     9    7   12       1
    10    8    9       1
    11    8   10       1
    12   10   11       1
    13   10   12       1
    14   12   13       1
    15   13   14       1
    16   13   22       1
    17   14   15       2
    18   15   16       1
    19   16   17      ar
    20   16   22      ar
    21   17   18       1
    22   17   19      ar
    23   19   20      ar
    24   20   21      ar
    25   21   22      ar
    26   23   24       1
    27   23   40       2
    28   24   25       2
    29   24   26       1
    30   26   27       1
    31   27   28       2
    32   27   29       1
    33   29   30       2
    34   29   40       1
    35   30   31       1
    36   31   32      ar
    37   31   38      ar
    38   32   33      ar
    39   33   34       1
    40   33   35      ar
    41   35   36       1
    42   35   37      ar
    43   37   38      ar
    44   38   39       1
    45   39   40       1
    46   39   41       1
    47   41   42       1
    48   42   43       1
    49   42   44       1
    50   44   45       1
    51   44   46       1
    52   46   47       1
    53   46   48       1
    54   48   49       1
    55   49   50       1
    56   50   51      ar
    57   50   52      ar
    58   50   53       1
    59   48   84       1
    60    5   54       1
    61    5   55       1
    62    6   56       1
    63    8   57       1
    64    9   58       1
    65   10   59       1
    66   11   60       1
    67   12   61       1
    68   14   62       1
    69   18   63       1
    70   18   64       1
    71   20   65       1
    72   26   66       1
    73   32   67       1
    74   34   68       1
    75   34   69       1
    76   34   70       1
    77   36   71       1
    78   36   72       1
    79   36   73       1
    80   37   74       1
    81   41   75       1
    82   41   76       1
    83   42   77       1
    84   43   78       1
    85   44   79       1
    86   45   80       1
    87   46   81       1
    88   47   82       1
    89   48   83       1
@<TRIPOS>SUBSTRUCTURE
     1 FAD200      1 GROUP             4 A     FAD     0 **** FAD A 200
