@<TRIPOS>MOLECULE
4c59_FEF_1_ligand
   46    49     1     0     0
SMALL
NO_CHARGES


@<TRIPOS>ATOM
     1 OAV         28.0160    24.1880   -57.0300 O.2          1 FEF1334   0.0000
     2 CAT         27.1690    23.7370   -56.2510 C.2          1 FEF1334   0.0000
     3 CAR         26.8250    22.3100   -56.0250 C.2          1 FEF1334   0.0000
     4 CAS         25.7870    22.2940   -55.0140 C.ar         1 FEF1334   0.0000
     5 CAX         25.0560    21.2930   -54.3810 C.ar         1 FEF1334   0.0000
     6 CAY         24.0920    21.6260   -53.4390 C.ar         1 FEF1334   0.0000
     7 CAZ         23.8400    22.9540   -53.1210 C.ar         1 FEF1334   0.0000
     8 CBA         24.5540    23.9760   -53.7340 C.ar         1 FEF1334   0.0000
     9 CAW         25.5250    23.6360   -54.6760 C.ar         1 FEF1334   0.0000
    10 NAU         26.3660    24.4620   -55.4270 N.am         1 FEF1334   0.0000
    11 CAI         27.3910    21.2260   -56.7230 C.2          1 FEF1334   0.0000
    12 CAG         27.1420    19.8020   -56.5140 C.2          1 FEF1334   0.0000
    13 CAD         27.9720    19.1040   -57.5090 C.ar         1 FEF1334   0.0000
    14 CAC         28.1630    17.7670   -57.8560 C.ar         1 FEF1334   0.0000
    15 CAA         29.0130    17.4420   -58.9070 C.ar         1 FEF1334   0.0000
    16 CAB         29.6810    18.4380   -59.6170 C.ar         1 FEF1334   0.0000
    17 CAF         29.5150    19.7760   -59.2890 C.ar         1 FEF1334   0.0000
    18 CAE         28.6610    20.0980   -58.2380 C.ar         1 FEF1334   0.0000
    19 NAH         28.3050    21.3510   -57.7490 N.pl3        1 FEF1334   0.0000
    20 NAJ         26.3570    19.3750   -55.5860 N.2          1 FEF1334   0.0000
    21 OAK         26.2740    17.9640   -55.4790 O.3          1 FEF1334   0.0000
    22 CAL         25.3720    17.6400   -54.4150 C.3          1 FEF1334   0.0000
    23 CAM         25.8800    16.3830   -53.7580 C.3          1 FEF1334   0.0000
    24 CAN         26.2560    16.6350   -52.3070 C.3          1 FEF1334   0.0000
    25 OAQ         25.1650    17.2820   -51.6450 O.3          1 FEF1334   0.0000
    26 CAO         26.5780    15.3250   -51.6280 C.3          1 FEF1334   0.0000
    27 OAP         25.8190    15.1810   -50.4380 O.3          1 FEF1334   0.0000
    28 HAX         25.2252    20.3332   -54.6049 H            1 FEF1334   0.0000
    29 HAY         23.5735    20.9016   -52.9846 H            1 FEF1334   0.0000
    30 HAZ         23.1381    23.1768   -52.4445 H            1 FEF1334   0.0000
    31 HBA         24.3760    24.9331   -53.5053 H            1 FEF1334   0.0000
    32 HAU         26.3760    25.4601   -55.3661 H            1 FEF1334   0.0000
    33 HAC         27.6904    17.0448   -57.3509 H            1 FEF1334   0.0000
    34 HAA         29.1466    16.4828   -59.1563 H            1 FEF1334   0.0000
    35 HAB         30.2869    18.1855   -60.3714 H            1 FEF1334   0.0000
    36 HAF         29.9970    20.4912   -59.7951 H            1 FEF1334   0.0000
    37 HAH         28.6614    22.2198   -58.0927 H            1 FEF1334   0.0000
    38 HAL1        24.4538    17.4872   -54.7804 H            1 FEF1334   0.0000
    39 HAL2        25.3462    18.3864   -53.7500 H            1 FEF1334   0.0000
    40 HAM1        26.6867    16.0595   -54.2526 H            1 FEF1334   0.0000
    41 HAM2        25.1651    15.6847   -53.7932 H            1 FEF1334   0.0000
    42 HAN         27.0598    17.2290   -52.2739 H            1 FEF1334   0.0000
    43 HAQ         25.4659    18.1695   -51.2961 H            1 FEF1334   0.0000
    44 HAO1        27.5518    15.3025   -51.4017 H            1 FEF1334   0.0000
    45 HAO2        26.3625    14.5712   -52.2487 H            1 FEF1334   0.0000
    46 HAP         25.2369    15.9847   -50.3146 H            1 FEF1334   0.0000
@<TRIPOS>BOND
     1    1    2       2
     2    2    3       1
     3    2   10      am
     4    3    4       1
     5    3   11       2
     6    4    5      ar
     7    4    9      ar
     8    5    6      ar
     9    6    7      ar
    10    7    8      ar
    11    8    9      ar
    12    9   10       1
    13   11   12       1
    14   11   19       1
    15   12   13       1
    16   12   20       2
    17   13   14      ar
    18   13   18      ar
    19   14   15      ar
    20   15   16      ar
    21   16   17      ar
    22   17   18      ar
    23   18   19       1
    24   20   21       1
    25   21   22       1
    26   22   23       1
    27   23   24       1
    28   24   25       1
    29   24   26       1
    30   26   27       1
    31    5   28       1
    32    6   29       1
    33    7   30       1
    34    8   31       1
    35   10   32       1
    36   14   33       1
    37   15   34       1
    38   16   35       1
    39   17   36       1
    40   19   37       1
    41   22   38       1
    42   22   39       1
    43   23   40       1
    44   23   41       1
    45   24   42       1
    46   25   43       1
    47   26   44       1
    48   26   45       1
    49   27   46       1
@<TRIPOS>SUBSTRUCTURE
     1 FEF1334     1 GROUP             4 A     FEF     0 **** FEF A1334
