@<TRIPOS>MOLECULE
4c02_TAK_1_ligand
   37    40     1     0     0
SMALL
NO_CHARGES


@<TRIPOS>ATOM
     1 C7         -43.8280    10.6530    22.3430 C.3          1 TAK1507   0.0000
     2 O1         -43.8630    11.2580    21.0720 O.3          1 TAK1507   0.0000
     3 C8         -45.0870    11.2050    20.3100 C.ar         1 TAK1507   0.0000
     4 C9         -46.3470    10.8810    20.8670 C.ar         1 TAK1507   0.0000
     5 C10        -47.4950    10.8440    20.0800 C.ar         1 TAK1507   0.0000
     6 C13        -47.4360    11.1140    18.7140 C.ar         1 TAK1507   0.0000
     7 C12        -46.1930    11.4610    18.1750 C.ar         1 TAK1507   0.0000
     8 C11        -45.0390    11.5000    18.9740 C.ar         1 TAK1507   0.0000
     9 C14        -48.6410    11.0940    17.8930 C.2          1 TAK1507   0.0000
    10 C16        -48.7580    11.8540    16.7160 C.2          1 TAK1507   0.0000
    11 N2         -49.8920    11.8600    15.9810 N.2          1 TAK1507   0.0000
    12 C17        -50.9800    11.0800    16.3580 C.2          1 TAK1507   0.0000
    13 C19        -52.2670    10.9110    15.7800 C.2          1 TAK1507   0.0000
    14 C18        -52.8960    10.0020    16.6270 C.2          1 TAK1507   0.0000
    15 N4         -52.0640     9.6480    17.6450 N.2          1 TAK1507   0.0000
    16 N3         -50.8920    10.3400    17.4390 N.pl3        1 TAK1507   0.0000
    17 C15        -49.7540    10.3290    18.2430 C.2          1 TAK1507   0.0000
    18 C20        -52.8400    11.4700    14.6340 C.ar         1 TAK1507   0.0000
    19 C21        -54.1910    11.7850    14.6450 C.ar         1 TAK1507   0.0000
    20 C22        -54.8190    12.3270    13.5350 C.ar         1 TAK1507   0.0000
    21 N5         -54.1030    12.5420    12.4300 N.ar         1 TAK1507   0.0000
    22 C23        -52.7990    12.2460    12.3630 C.ar         1 TAK1507   0.0000
    23 C24        -52.1490    11.6960    13.4590 C.ar         1 TAK1507   0.0000
    24 H1         -42.9197    10.7722    22.7440 H            1 TAK1507   0.0000
    25 H2         -44.5121    11.0800    22.9344 H            1 TAK1507   0.0000
    26 H3         -44.0273     9.6772    22.2533 H            1 TAK1507   0.0000
    27 H4         -46.4140    10.6750    21.8432 H            1 TAK1507   0.0000
    28 H5         -48.3742    10.6206    20.5008 H            1 TAK1507   0.0000
    29 H6         -46.1248    11.6854    17.2029 H            1 TAK1507   0.0000
    30 H7         -44.1640    11.7484    18.5585 H            1 TAK1507   0.0000
    31 H8         -47.9803    12.4055    16.4143 H            1 TAK1507   0.0000
    32 H9         -53.8270     9.6580    16.5048 H            1 TAK1507   0.0000
    33 H10        -49.7350     9.7714    19.0729 H            1 TAK1507   0.0000
    34 H11        -54.7245    11.6169    15.4739 H            1 TAK1507   0.0000
    35 H12        -55.7927    12.5532    13.5618 H            1 TAK1507   0.0000
    36 H13        -52.2912    12.4220    11.5197 H            1 TAK1507   0.0000
    37 H14        -51.1785    11.4628    13.3982 H            1 TAK1507   0.0000
@<TRIPOS>BOND
     1    1    2       1
     2    2    3       1
     3    3    4      ar
     4    3    8      ar
     5    4    5      ar
     6    5    6      ar
     7    6    7      ar
     8    6    9       1
     9    7    8      ar
    10    9   10       1
    11    9   17       2
    12   10   11       2
    13   11   12       1
    14   12   13       2
    15   12   16       1
    16   13   14       1
    17   13   18       1
    18   14   15       2
    19   15   16       1
    20   16   17       1
    21   18   19      ar
    22   18   23      ar
    23   19   20      ar
    24   20   21      ar
    25   21   22      ar
    26   22   23      ar
    27    1   24       1
    28    1   25       1
    29    1   26       1
    30    4   27       1
    31    5   28       1
    32    7   29       1
    33    8   30       1
    34   10   31       1
    35   14   32       1
    36   17   33       1
    37   19   34       1
    38   20   35       1
    39   22   36       1
    40   23   37       1
@<TRIPOS>SUBSTRUCTURE
     1 TAK1507     1 GROUP             4 A     TAK     0 **** TAK A1507
