@<TRIPOS>MOLECULE
1v93_FAD_1_ligand
   84    89     1     0     0
SMALL
NO_CHARGES


@<TRIPOS>ATOM
     1 PA          81.0640   106.9750    52.0310 P.3          1 FAD300   0.0000
     2 O1A         80.0030   107.4550    52.9380 O.co2        1 FAD300   0.0000
     3 O2A         80.7110   105.9280    51.0210 O.co2        1 FAD300  -1.0000
     4 O5B         81.6770   108.2570    51.3200 O.3          1 FAD300   0.0000
     5 C5B         82.7770   108.1980    50.3740 C.3          1 FAD300   0.0000
     6 C4B         82.7160   109.4300    49.4300 C.3          1 FAD300   0.0000
     7 O4B         81.6940   109.1250    48.4520 O.3          1 FAD300   0.0000
     8 C3B         82.3170   110.7770    50.0750 C.3          1 FAD300   0.0000
     9 O3B         83.0890   111.8600    49.6110 O.3          1 FAD300   0.0000
    10 C2B         80.8530   110.8890    49.7440 C.3          1 FAD300   0.0000
    11 O2B         80.2980   112.2080    49.7530 O.3          1 FAD300   0.0000
    12 C1B         80.7510   110.1910    48.3920 C.3          1 FAD300   0.0000
    13 N9A         79.4720   109.5620    48.0740 N.pl3        1 FAD300   0.0000
    14 C8A         78.6820   108.7860    48.8990 C.2          1 FAD300   0.0000
    15 N7A         77.5840   108.3570    48.3130 N.2          1 FAD300   0.0000
    16 C5A         77.6500   108.8730    47.0310 C.ar         1 FAD300   0.0000
    17 C6A         76.7890   108.7790    45.9000 C.ar         1 FAD300   0.0000
    18 N6A         75.6450   108.0810    45.9420 N.pl3        1 FAD300   0.0000
    19 N1A         77.1470   109.4140    44.7580 N.ar         1 FAD300   0.0000
    20 C2A         78.3260   110.1310    44.7170 C.ar         1 FAD300   0.0000
    21 N3A         79.2070   110.2790    45.7280 N.ar         1 FAD300   0.0000
    22 C4A         78.8100   109.6140    46.8860 C.ar         1 FAD300   0.0000
    23 N1          88.6680   103.2370    57.2400 N.2          1 FAD300   0.0000
    24 C2          89.1390   101.9560    57.2240 C.2          1 FAD300   0.0000
    25 O2          89.8350   101.5130    56.2620 O.2          1 FAD300   0.0000
    26 N3          88.8870   101.0870    58.2840 N.pl3        1 FAD300   0.0000
    27 C4          88.1230   101.4440    59.4020 C.2          1 FAD300   0.0000
    28 O4          87.9350   100.6060    60.3220 O.2          1 FAD300   0.0000
    29 C4X         87.6090   102.7710    59.4060 C.2          1 FAD300   0.0000
    30 N5          86.8250   103.1920    60.5020 N.2          1 FAD300   0.0000
    31 C5X         86.3540   104.4870    60.4980 C.ar         1 FAD300   0.0000
    32 C6          85.5560   104.9270    61.5900 C.ar         1 FAD300   0.0000
    33 C7          85.0510   106.2230    61.6590 C.ar         1 FAD300   0.0000
    34 C7M         84.1960   106.5930    62.8820 C.3          1 FAD300   0.0000
    35 C8          85.3320   107.1550    60.6220 C.ar         1 FAD300   0.0000
    36 C8M         84.8320   108.5850    60.6240 C.3          1 FAD300   0.0000
    37 C9          86.1320   106.7150    59.5160 C.ar         1 FAD300   0.0000
    38 C9A         86.6460   105.4180    59.4180 C.ar         1 FAD300   0.0000
    39 N10         87.4410   104.9570    58.3210 N.pl3        1 FAD300   0.0000
    40 C10         87.9320   103.6100    58.3020 C.2          1 FAD300   0.0000
    41 C1'         87.8040   105.8200    57.1660 C.3          1 FAD300   0.0000
    42 C2'         86.8380   105.7990    55.9900 C.3          1 FAD300   0.0000
    43 O2'         86.7580   104.4490    55.4690 O.3          1 FAD300   0.0000
    44 C3'         87.3160   106.8170    54.9450 C.3          1 FAD300   0.0000
    45 O3'         87.0300   108.1220    55.4490 O.3          1 FAD300   0.0000
    46 C4'         86.6730   106.6340    53.5660 C.3          1 FAD300   0.0000
    47 O4'         87.4250   107.3940    52.5970 O.3          1 FAD300   0.0000
    48 C5'         85.2060   107.0250    53.5370 C.3          1 FAD300   0.0000
    49 O5'         84.3940   105.9790    54.1360 O.3          1 FAD300   0.0000
    50 P           82.8310   106.1830    54.3120 P.3          1 FAD300   0.0000
    51 O1P         82.2820   104.9710    54.9230 O.co2        1 FAD300   0.0000
    52 O2P         82.6170   107.4820    55.0290 O.co2        1 FAD300  -1.0000
    53 O3P         82.3310   106.4020    52.8090 O.3          1 FAD300   0.0000
    54 H5B1        82.7066   107.3599    49.8330 H            1 FAD300   0.0000
    55 H5B2        83.6446   108.2019    50.8712 H            1 FAD300   0.0000
    56 H4B         83.5958   109.5341    48.9662 H            1 FAD300   0.0000
    57 H3B         82.4211   110.7055    51.0670 H            1 FAD300   0.0000
    58 H5          82.7877   112.7009    50.0606 H            1 FAD300   0.0000
    59 H2B         80.3469   110.3405    50.4095 H            1 FAD300   0.0000
    60 H7          81.0110   112.8681    49.9895 H            1 FAD300   0.0000
    61 H1B         81.0055   110.8268    47.6633 H            1 FAD300   0.0000
    62 H8A         78.9200   108.5715    49.8463 H            1 FAD300   0.0000
    63 H6A1        75.0593   108.0318    45.1330 H            1 FAD300   0.0000
    64 H6A2        75.3775   107.6096    46.7824 H            1 FAD300   0.0000
    65 H2A         78.5486   110.5847    43.8541 H            1 FAD300   0.0000
    66 H13         89.2702   100.1642    58.2443 H            1 FAD300   0.0000
    67 H14         85.3514   104.2866    62.3303 H            1 FAD300   0.0000
    68 H7M1        83.8999   107.5451    62.8060 H            1 FAD300   0.0000
    69 H7M2        83.3942   105.9966    62.9209 H            1 FAD300   0.0000
    70 H7M3        84.7378   106.4779    63.7146 H            1 FAD300   0.0000
    71 H8M1        85.1516   109.0510    59.7990 H            1 FAD300   0.0000
    72 H8M2        83.8322   108.5885    60.6427 H            1 FAD300   0.0000
    73 H8M3        85.1821   109.0594    61.4317 H            1 FAD300   0.0000
    74 H21         86.3312   107.3645    58.7822 H            1 FAD300   0.0000
    75 H1'1        88.6992   105.5245    56.8323 H            1 FAD300   0.0000
    76 H1'2        87.8654   106.7623    57.4951 H            1 FAD300   0.0000
    77 H2'         85.9322   106.0724    56.3137 H            1 FAD300   0.0000
    78 H25         87.3546   103.8498    56.0029 H            1 FAD300   0.0000
    79 H3'         88.3070   106.7267    54.8461 H            1 FAD300   0.0000
    80 H27         86.0455   108.2131    55.5987 H            1 FAD300   0.0000
    81 H4'         86.7400   105.6671    53.3197 H            1 FAD300   0.0000
    82 H29         88.3817   107.4453    52.8834 H            1 FAD300   0.0000
    83 H5'1        84.9198   107.1627    52.5888 H            1 FAD300   0.0000
    84 H5'2        85.0807   107.8744    54.0497 H            1 FAD300   0.0000
@<TRIPOS>BOND
     1    1    2      ar
     2    1    3      ar
     3    1    4       1
     4    1   53       1
     5    4    5       1
     6    5    6       1
     7    6    7       1
     8    6    8       1
     9    7   12       1
    10    8    9       1
    11    8   10       1
    12   10   11       1
    13   10   12       1
    14   12   13       1
    15   13   14       1
    16   13   22       1
    17   14   15       2
    18   15   16       1
    19   16   17      ar
    20   16   22      ar
    21   17   18       1
    22   17   19      ar
    23   19   20      ar
    24   20   21      ar
    25   21   22      ar
    26   23   24       1
    27   23   40       2
    28   24   25       2
    29   24   26       1
    30   26   27       1
    31   27   28       2
    32   27   29       1
    33   29   30       2
    34   29   40       1
    35   30   31       1
    36   31   32      ar
    37   31   38      ar
    38   32   33      ar
    39   33   34       1
    40   33   35      ar
    41   35   36       1
    42   35   37      ar
    43   37   38      ar
    44   38   39       1
    45   39   40       1
    46   39   41       1
    47   41   42       1
    48   42   43       1
    49   42   44       1
    50   44   45       1
    51   44   46       1
    52   46   47       1
    53   46   48       1
    54   48   49       1
    55   49   50       1
    56   50   51      ar
    57   50   52      ar
    58   50   53       1
    59   48   84       1
    60    5   54       1
    61    5   55       1
    62    6   56       1
    63    8   57       1
    64    9   58       1
    65   10   59       1
    66   11   60       1
    67   12   61       1
    68   14   62       1
    69   18   63       1
    70   18   64       1
    71   20   65       1
    72   26   66       1
    73   32   67       1
    74   34   68       1
    75   34   69       1
    76   34   70       1
    77   36   71       1
    78   36   72       1
    79   36   73       1
    80   37   74       1
    81   41   75       1
    82   41   76       1
    83   42   77       1
    84   43   78       1
    85   44   79       1
    86   45   80       1
    87   46   81       1
    88   47   82       1
    89   48   83       1
@<TRIPOS>SUBSTRUCTURE
     1 FAD300      1 GROUP             4 A     FAD     0 **** FAD A 300
