@<TRIPOS>MOLECULE
3sw8_5LI_1_ligand
   26    26     1     0     0
SMALL
NO_CHARGES


@<TRIPOS>ATOM
     1 C1          25.1390    -6.8630     8.6880 C.ar         1 5LI205   0.0000
     2 C2          25.5200    -6.5720     7.4010 C.ar         1 5LI205   0.0000
     3 C3          25.2860    -5.9250     9.6850 C.ar         1 5LI205   0.0000
     4 C4          26.0490    -5.3380     7.0960 C.ar         1 5LI205   0.0000
     5 C5          25.8190    -4.6970     9.3710 C.ar         1 5LI205   0.0000
     6 C6          26.2050    -4.3880     8.0830 C.ar         1 5LI205   0.0000
     7 C7          29.5190    -2.1860     4.8800 C.2          1 5LI205   0.0000
     8 C8          26.4350    -5.0900     5.6920 C.2          1 5LI205   0.0000
     9 C9          28.1300    -5.4320     3.9910 C.3          1 5LI205   0.0000
    10 C10         28.3030    -3.9790     3.5930 C.3          1 5LI205   0.0000
    11 N11         27.6670    -5.5680     5.3510 N.am         1 5LI205   0.0000
    12 N12         29.4470    -3.3960     4.2480 N.am         1 5LI205   0.0000
    13 O13         30.5110    -1.7200     5.4180 O.2          1 5LI205   0.0000
    14 O14         25.6800    -4.5330     4.9060 O.2          1 5LI205   0.0000
    15 O15         30.6350    -4.1390     4.2460 O.3          1 5LI205  -1.0000
    16 CL16        25.9810    -3.5600    10.6490 Cl           1 5LI205   0.0000
    17 CL17        26.8710    -2.8300     7.7190 Cl           1 5LI205   0.0000
    18 H1          24.7530    -7.7604     8.9019 H            1 5LI205   0.0000
    19 H2          25.4128    -7.2592     6.6825 H            1 5LI205   0.0000
    20 H3          25.0094    -6.1336    10.6231 H            1 5LI205   0.0000
    21 H4          28.6856    -1.6338     4.9038 H            1 5LI205   0.0000
    22 H5          29.0100    -5.8984     3.9013 H            1 5LI205   0.0000
    23 H6          27.4634    -5.8573     3.3789 H            1 5LI205   0.0000
    24 H7          27.4828    -3.4691     3.8524 H            1 5LI205   0.0000
    25 H8          28.4303    -3.9243     2.6026 H            1 5LI205   0.0000
    26 H9          28.2443    -6.0090     6.0382 H            1 5LI205   0.0000
@<TRIPOS>BOND
     1    1    2      ar
     2    1    3      ar
     3    2    4      ar
     4    3    5      ar
     5    4    6      ar
     6    4    8       1
     7    5    6      ar
     8    5   16       1
     9    6   17       1
    10    7   12      am
    11    7   13       2
    12    8   11      am
    13    8   14       2
    14    9   10       1
    15    9   11       1
    16   10   12       1
    17   12   15       1
    18    1   18       1
    19    2   19       1
    20    3   20       1
    21    7   21       1
    22    9   22       1
    23    9   23       1
    24   10   24       1
    25   10   25       1
    26   11   26       1
@<TRIPOS>SUBSTRUCTURE
     1 5LI205      1 GROUP             4 P     5LI     0 **** 5LI P 205
