@<TRIPOS>MOLECULE
4y0k_NAP_1_ligand
   73    77     1     0     0
SMALL
NO_CHARGES


@<TRIPOS>ATOM
     1 PA          20.4070   -22.5930    -9.8350 P.3          1 NAP501   0.0000
     2 O1A         21.3840   -21.5020   -10.1810 O.co2        1 NAP501   0.0000
     3 O2A         20.7040   -24.0370   -10.1400 O.co2        1 NAP501  -1.0000
     4 O5B         20.1200   -22.5030    -8.2580 O.3          1 NAP501   0.0000
     5 C5B         19.1930   -23.4110    -7.6940 C.3          1 NAP501   0.0000
     6 C4B         19.7110   -23.9300    -6.3780 C.3          1 NAP501   0.0000
     7 O4B         18.6660   -24.6290    -5.7210 O.3          1 NAP501   0.0000
     8 C3B         20.8140   -24.9640    -6.4880 C.3          1 NAP501   0.0000
     9 O3B         22.0810   -24.3530    -6.6790 O.3          1 NAP501   0.0000
    10 C2B         20.7080   -25.6950    -5.1620 C.3          1 NAP501   0.0000
    11 O2B         21.7120   -25.1830    -4.2640 O.3          1 NAP501   0.0000
    12 C1B         19.2440   -25.4620    -4.7300 C.3          1 NAP501   0.0000
    13 N9A         18.5460   -26.7710    -4.6210 N.pl3        1 NAP501   0.0000
    14 C8A         18.5260   -27.7330    -5.5690 C.2          1 NAP501   0.0000
    15 N7A         17.8430   -28.8270    -5.1450 N.2          1 NAP501   0.0000
    16 C5A         17.4340   -28.5800    -3.8840 C.ar         1 NAP501   0.0000
    17 C6A         16.6740   -29.3140    -2.8530 C.ar         1 NAP501   0.0000
    18 N6A         16.2250   -30.5590    -3.1070 N.pl3        1 NAP501   0.0000
    19 N1A         16.4330   -28.7000    -1.6720 N.ar         1 NAP501   0.0000
    20 C2A         16.8790   -27.4540    -1.4200 C.ar         1 NAP501   0.0000
    21 N3A         17.5820   -26.7320    -2.3120 N.ar         1 NAP501   0.0000
    22 C4A         17.8960   -27.2290    -3.5390 C.ar         1 NAP501   0.0000
    23 O3          18.9750   -22.2120   -10.4740 O.3          1 NAP501   0.0000
    24 PN          18.3250   -20.7410   -10.3950 P.3          1 NAP501   0.0000
    25 O1N         18.5810   -20.0370   -11.6970 O.co2        1 NAP501   0.0000
    26 O2N         18.7620   -20.1000    -9.1090 O.co2        1 NAP501  -1.0000
    27 O5D         16.7680   -21.1050   -10.3460 O.3          1 NAP501   0.0000
    28 C5D         16.2160   -21.8180    -9.2420 C.3          1 NAP501   0.0000
    29 C4D         14.7750   -22.1820    -9.5650 C.3          1 NAP501   0.0000
    30 O4D         14.0190   -20.9860    -9.7670 O.3          1 NAP501   0.0000
    31 C3D         14.6750   -22.9840   -10.8500 C.3          1 NAP501   0.0000
    32 O3D         13.6990   -24.0170   -10.6940 O.3          1 NAP501   0.0000
    33 C2D         14.2240   -21.9750   -11.8880 C.3          1 NAP501   0.0000
    34 O2D         13.4920   -22.5790   -12.9630 O.3          1 NAP501   0.0000
    35 C1D         13.4030   -21.0020   -11.0610 C.3          1 NAP501   0.0000
    36 N1N         13.4080   -19.6450   -11.6060 N.ar         1 NAP501   1.0000
    37 C2N         12.2560   -19.1260   -12.0130 C.ar         1 NAP501   0.0000
    38 C3N         12.1900   -17.8410   -12.5290 C.ar         1 NAP501   0.0000
    39 C7N         10.8490   -17.3310   -12.9920 C.2          1 NAP501   0.0000
    40 O7N         10.7937   -16.3133   -13.6787 O.2          1 NAP501   0.0000
    41 N7N          9.7274   -17.9779   -12.6753 N.am         1 NAP501   0.0000
    42 C4N         13.3660   -17.0930   -12.6190 C.ar         1 NAP501   0.0000
    43 C5N         14.5650   -17.6430   -12.1720 C.ar         1 NAP501   0.0000
    44 C6N         14.5510   -18.9360   -11.6620 C.ar         1 NAP501   0.0000
    45 P2B         22.3610   -26.0440    -3.0630 P.3          1 NAP501   0.0000
    46 O1X         22.6100   -27.4150    -3.6460 O.co2        1 NAP501   0.0000
    47 O2X         23.6160   -25.2850    -2.6850 O.co2        1 NAP501  -1.0000
    48 O3X         21.3050   -26.0550    -1.9700 O.co2        1 NAP501  -1.0000
    49 H5B1        19.0575   -24.1777    -8.3215 H            1 NAP501   0.0000
    50 H5B2        18.3214   -22.9440    -7.5452 H            1 NAP501   0.0000
    51 H4B         20.0177   -23.1665    -5.8096 H            1 NAP501   0.0000
    52 H3B         20.6201   -25.5923    -7.2415 H            1 NAP501   0.0000
    53 H5          21.9642   -23.4899    -7.1703 H            1 NAP501   0.0000
    54 H2B         20.8600   -26.6725    -5.3081 H            1 NAP501   0.0000
    55 H1B         19.2245   -24.9958    -3.8456 H            1 NAP501   0.0000
    56 H8A         18.9583   -27.6501    -6.4669 H            1 NAP501   0.0000
    57 H6A1        15.7101   -31.0569    -2.4092 H            1 NAP501   0.0000
    58 H6A2        16.4067   -30.9849    -3.9933 H            1 NAP501   0.0000
    59 H2A         16.6784   -27.0468    -0.5290 H            1 NAP501   0.0000
    60 H5D1        16.2423   -21.2436    -8.4239 H            1 NAP501   0.0000
    61 H5D2        16.7452   -22.6511    -9.0815 H            1 NAP501   0.0000
    62 H4D         14.3820   -22.7057    -8.8092 H            1 NAP501   0.0000
    63 H3D         15.5637   -23.3711   -11.0956 H            1 NAP501   0.0000
    64 H16         13.6655   -24.3021    -9.7361 H            1 NAP501   0.0000
    65 H2D         15.0235   -21.5016   -12.2577 H            1 NAP501   0.0000
    66 H18         13.2186   -21.8741   -13.6175 H            1 NAP501   0.0000
    67 H1D         12.4624   -21.3326   -10.9842 H            1 NAP501   0.0000
    68 H2N         11.4207   -19.6718   -11.9462 H            1 NAP501   0.0000
    69 H7N1         8.8455   -17.6400   -13.0041 H            1 NAP501   0.0000
    70 H7N2         9.7678   -18.8010   -12.1089 H            1 NAP501   0.0000
    71 H4N         13.3473   -16.1693   -13.0016 H            1 NAP501   0.0000
    72 H5N         15.4161   -17.1199   -12.2169 H            1 NAP501   0.0000
    73 H6N         15.4017   -19.3452   -11.3321 H            1 NAP501   0.0000
@<TRIPOS>BOND
     1    1    2      ar
     2    1    3      ar
     3    1    4       1
     4    1   23       1
     5    4    5       1
     6    5    6       1
     7    6    7       1
     8    6    8       1
     9    7   12       1
    10    8    9       1
    11    8   10       1
    12   10   11       1
    13   10   12       1
    14   11   45       1
    15   12   13       1
    16   13   14       1
    17   13   22       1
    18   14   15       2
    19   15   16       1
    20   16   17      ar
    21   16   22      ar
    22   17   18       1
    23   17   19      ar
    24   19   20      ar
    25   20   21      ar
    26   21   22      ar
    27   23   24       1
    28   24   25      ar
    29   24   26      ar
    30   24   27       1
    31   27   28       1
    32   28   29       1
    33   29   30       1
    34   29   31       1
    35   30   35       1
    36   31   32       1
    37   31   33       1
    38   33   34       1
    39   33   35       1
    40   35   36       1
    41   36   37      ar
    42   36   44      ar
    43   37   38      ar
    44   38   39       1
    45   38   42      ar
    46   39   40       2
    47   39   41      am
    48   42   43      ar
    49   43   44      ar
    50   45   46      ar
    51   45   47      ar
    52   45   48      ar
    53   43   72       1
    54    5   49       1
    55    5   50       1
    56    6   51       1
    57    8   52       1
    58    9   53       1
    59   10   54       1
    60   12   55       1
    61   14   56       1
    62   18   57       1
    63   18   58       1
    64   20   59       1
    65   44   73       1
    66   28   60       1
    67   28   61       1
    68   29   62       1
    69   31   63       1
    70   32   64       1
    71   33   65       1
    72   34   66       1
    73   35   67       1
    74   37   68       1
    75   41   69       1
    76   41   70       1
    77   42   71       1
@<TRIPOS>SUBSTRUCTURE
     1 NAP501      1 GROUP             4 A     NAP     0 **** NAP A 501
