@<TRIPOS>MOLECULE
4fx9_COA_4_ligand
   80    82     1     0     0
SMALL
NO_CHARGES


@<TRIPOS>ATOM
     1 N1A        -53.2690    -7.2950    -8.1030 N.ar         1 COA902   0.0000
     2 C2A        -52.6080    -8.3750    -7.5380 C.ar         1 COA902   0.0000
     3 N3A        -53.2650    -9.1980    -6.6410 N.ar         1 COA902   0.0000
     4 C4A        -54.5600    -8.9540    -6.3060 C.ar         1 COA902   0.0000
     5 C5A        -55.2360    -7.8690    -6.8660 C.ar         1 COA902   0.0000
     6 C6A        -54.5880    -7.0360    -7.7710 C.ar         1 COA902   0.0000
     7 N6A        -55.3090    -6.2020    -8.5190 N.pl3        1 COA902   0.0000
     8 N7A        -56.4920    -7.8480    -6.3760 N.2          1 COA902   0.0000
     9 C8A        -56.6320    -8.8850    -5.5210 C.2          1 COA902   0.0000
    10 N9A        -55.4510    -9.5860    -5.4670 N.pl3        1 COA902   0.0000
    11 C1B        -55.2940   -10.8400    -4.6960 C.3          1 COA902   0.0000
    12 C2B        -54.5620   -11.9810    -5.3970 C.3          1 COA902   0.0000
    13 O2B        -55.4470   -12.7480    -6.1750 O.3          1 COA902   0.0000
    14 C3B        -54.0400   -12.7700    -4.2130 C.3          1 COA902   0.0000
    15 O3B        -55.1290   -13.4950    -3.6690 O.3          1 COA902   0.0000
    16 P3B        -55.0350   -14.8550    -2.7970 P.3          1 COA902   0.0000
    17 O7A        -56.4500   -15.2810    -2.4640 O.co2        1 COA902   0.0000
    18 O8A        -54.3410   -15.9400    -3.5930 O.co2        1 COA902  -1.0000
    19 O9A        -54.2800   -14.6200    -1.5070 O.co2        1 COA902  -1.0000
    20 C4B        -53.6610   -11.6580    -3.2450 C.3          1 COA902   0.0000
    21 O4B        -54.5960   -10.6250    -3.4800 O.3          1 COA902   0.0000
    22 C5B        -52.2750   -11.0390    -3.4560 C.3          1 COA902   0.0000
    23 O5B        -51.2990   -12.0300    -3.6690 O.3          1 COA902   0.0000
    24 P1A        -49.9990   -11.7400    -4.5730 P.3          1 COA902   0.0000
    25 O1A        -50.3650   -10.8930    -5.7740 O.co2        1 COA902   0.0000
    26 O2A        -48.9010   -11.1110    -3.7500 O.co2        1 COA902  -1.0000
    27 O3A        -49.5600   -13.2150    -5.0470 O.3          1 COA902   0.0000
    28 P2A        -48.9970   -14.2730    -3.9730 P.3          1 COA902   0.0000
    29 O4A        -49.1190   -15.6710    -4.5440 O.co2        1 COA902   0.0000
    30 O5A        -49.6830   -14.1480    -2.6290 O.co2        1 COA902  -1.0000
    31 O6A        -47.4500   -13.8800    -3.8120 O.3          1 COA902   0.0000
    32 CBP        -45.2100   -13.4600    -4.6050 C.3          1 COA902   0.0000
    33 CCP        -46.5170   -14.2200    -4.8150 C.3          1 COA902   0.0000
    34 CDP        -44.7390   -13.7120    -3.1750 C.3          1 COA902   0.0000
    35 CEP        -45.4640   -11.9650    -4.7930 C.3          1 COA902   0.0000
    36 CAP        -44.1850   -13.9730    -5.6210 C.3          1 COA902   0.0000
    37 OAP        -44.6900   -13.8600    -6.9380 O.3          1 COA902   0.0000
    38 C9P        -42.8440   -13.2900    -5.5200 C.2          1 COA902   0.0000
    39 O9P        -41.9680   -13.5930    -4.4520 O.2          1 COA902   0.0000
    40 N8P        -42.5510   -12.4140    -6.4830 N.am         1 COA902   0.0000
    41 C7P        -41.3010   -11.6820    -6.5230 C.3          1 COA902   0.0000
    42 C6P        -40.3660   -12.1860    -7.6140 C.3          1 COA902   0.0000
    43 C5P        -41.0500   -12.2070    -8.9670 C.2          1 COA902   0.0000
    44 O5P        -42.1760   -11.7010    -9.1160 O.2          1 COA902   0.0000
    45 N4P        -40.4020   -12.7880    -9.9780 N.am         1 COA902   0.0000
    46 C3P        -39.0210   -13.2400    -9.8970 C.3          1 COA902   0.0000
    47 C2P        -38.2720   -13.0230   -11.2020 C.3          1 COA902   0.0000
    48 S1P        -38.9210   -11.6140   -12.1340 S.3          1 COA902   0.0000
    49 H2A        -51.6552    -8.5592    -7.7792 H            1 COA902   0.0000
    50 H6A1       -56.2618    -6.0135    -8.2810 H            1 COA902   0.0000
    51 H6A2       -54.8974    -5.7645    -9.3185 H            1 COA902   0.0000
    52 H8A        -57.4621    -9.1069    -5.0094 H            1 COA902   0.0000
    53 H1B        -56.2099   -11.1674    -4.4637 H            1 COA902   0.0000
    54 H2B        -53.8080   -11.6324    -5.9537 H            1 COA902   0.0000
    55 H7         -55.4920   -12.3694    -7.0995 H            1 COA902   0.0000
    56 H3B        -53.2655   -13.3563    -4.4505 H            1 COA902   0.0000
    57 H4B        -53.7464   -11.9846    -2.3037 H            1 COA902   0.0000
    58 H5B1       -52.0286   -10.5081    -2.6452 H            1 COA902   0.0000
    59 H5B2       -52.3057   -10.4356    -4.2528 H            1 COA902   0.0000
    60 HCP1       -46.8950   -13.9844    -5.7103 H            1 COA902   0.0000
    61 HCP2       -46.3364   -15.2028    -4.7776 H            1 COA902   0.0000
    62 HDP1       -43.8819   -13.2222    -3.0152 H            1 COA902   0.0000
    63 HDP2       -45.4335   -13.3868    -2.5331 H            1 COA902   0.0000
    64 HDP3       -44.5931   -14.6920    -3.0399 H            1 COA902   0.0000
    65 HEP1       -44.6105   -11.4621    -4.6565 H            1 COA902   0.0000
    66 HEP2       -45.8046   -11.7985    -5.7184 H            1 COA902   0.0000
    67 HEP3       -46.1431   -11.6560    -4.1272 H            1 COA902   0.0000
    68 HAP        -44.0411   -14.9454    -5.4372 H            1 COA902   0.0000
    69 H21        -44.7268   -14.7660    -7.3598 H            1 COA902   0.0000
    70 H8P        -43.2221   -12.2561    -7.2074 H            1 COA902   0.0000
    71 H7P1       -40.8440   -11.7788    -5.6388 H            1 COA902   0.0000
    72 H7P2       -41.4998   -10.7166    -6.6915 H            1 COA902   0.0000
    73 H6P1       -40.0700   -13.1134    -7.3852 H            1 COA902   0.0000
    74 H6P2       -39.5689   -11.5841    -7.6623 H            1 COA902   0.0000
    75 H4P        -40.8924   -12.9203   -10.8394 H            1 COA902   0.0000
    76 H3P1       -39.0132   -14.2159    -9.6789 H            1 COA902   0.0000
    77 H3P2       -38.5575   -12.7324    -9.1707 H            1 COA902   0.0000
    78 H2P1       -38.3561   -13.8467   -11.7628 H            1 COA902   0.0000
    79 H2P2       -37.3076   -12.8568   -10.9964 H            1 COA902   0.0000
    80 H1P        -38.4017   -11.5076   -12.9819 H            1 COA902   0.0000
@<TRIPOS>BOND
     1    1    2      ar
     2    1    6      ar
     3    2    3      ar
     4    3    4      ar
     5    4    5      ar
     6    4   10       1
     7    5    6      ar
     8    5    8       1
     9    6    7       1
    10    8    9       2
    11    9   10       1
    12   10   11       1
    13   11   12       1
    14   11   21       1
    15   12   13       1
    16   12   14       1
    17   14   15       1
    18   14   20       1
    19   15   16       1
    20   16   17      ar
    21   16   18      ar
    22   16   19      ar
    23   20   21       1
    24   20   22       1
    25   22   23       1
    26   23   24       1
    27   24   25      ar
    28   24   26      ar
    29   24   27       1
    30   27   28       1
    31   28   29      ar
    32   28   30      ar
    33   28   31       1
    34   31   33       1
    35   32   33       1
    36   32   34       1
    37   32   35       1
    38   32   36       1
    39   36   37       1
    40   36   38       1
    41   38   39       2
    42   38   40      am
    43   40   41       1
    44   41   42       1
    45   42   43       1
    46   43   44       2
    47   43   45      am
    48   45   46       1
    49   46   47       1
    50   47   48       1
    51    2   49       1
    52    7   50       1
    53    7   51       1
    54    9   52       1
    55   11   53       1
    56   12   54       1
    57   13   55       1
    58   14   56       1
    59   48   80       1
    60   47   79       1
    61   20   57       1
    62   22   58       1
    63   22   59       1
    64   47   78       1
    65   46   77       1
    66   33   60       1
    67   33   61       1
    68   34   62       1
    69   34   63       1
    70   34   64       1
    71   35   65       1
    72   35   66       1
    73   35   67       1
    74   36   68       1
    75   37   69       1
    76   40   70       1
    77   41   71       1
    78   41   72       1
    79   42   73       1
    80   42   74       1
    81   45   75       1
    82   46   76       1
@<TRIPOS>SUBSTRUCTURE
     1 COA902      1 GROUP             4 B     COA     0 **** COA B 902
