@<TRIPOS>MOLECULE
1v9a_SAH_2_ligand
   46    48     1     0     0
SMALL
NO_CHARGES


@<TRIPOS>ATOM
     1 N          -12.0860    64.7500    50.2950 N.4          1 SAH502   1.0000
     2 CA         -11.0670    65.1050    51.2990 C.3          1 SAH502   0.0000
     3 CB          -9.7500    64.4240    50.8020 C.3          1 SAH502   0.0000
     4 CG          -9.6920    62.8580    50.9710 C.3          1 SAH502   0.0000
     5 SD          -8.1270    62.2080    50.3520 S.3          1 SAH502   0.0000
     6 C          -10.9570    66.6300    51.4190 C.2          1 SAH502   0.0000
     7 O          -11.7120    67.3970    50.6770 O.co2        1 SAH502   0.0000
     8 OXT        -10.1260    67.1400    52.2500 O.co2        1 SAH502  -1.0000
     9 C5'         -7.2180    62.1130    51.9590 C.3          1 SAH502   0.0000
    10 C4'         -6.0850    63.1110    52.0330 C.3          1 SAH502   0.0000
    11 O4'         -6.6160    64.4240    52.3870 O.3          1 SAH502   0.0000
    12 C3'         -5.0070    62.8930    53.1180 C.3          1 SAH502   0.0000
    13 O3'         -3.9800    61.9740    52.7210 O.3          1 SAH502   0.0000
    14 C2'         -4.4650    64.2940    53.3260 C.3          1 SAH502   0.0000
    15 O2'         -3.5310    64.6420    52.2650 O.3          1 SAH502   0.0000
    16 C1'         -5.7020    65.1650    53.1830 C.3          1 SAH502   0.0000
    17 N9          -6.3800    65.4980    54.4410 N.pl3        1 SAH502   0.0000
    18 C8          -7.6880    65.2310    54.8370 C.2          1 SAH502   0.0000
    19 N7          -7.9550    65.7950    56.0360 N.2          1 SAH502   0.0000
    20 C5          -6.7760    66.4100    56.4210 C.ar         1 SAH502   0.0000
    21 C6          -6.3880    67.1910    57.5340 C.ar         1 SAH502   0.0000
    22 N6          -7.2340    67.4460    58.5260 N.pl3        1 SAH502   0.0000
    23 N1          -5.1000    67.6730    57.6230 N.ar         1 SAH502   0.0000
    24 C2          -4.2400    67.4110    56.6010 C.ar         1 SAH502   0.0000
    25 N3          -4.5120    66.6970    55.4790 N.ar         1 SAH502   0.0000
    26 C4          -5.7900    66.2430    55.4390 C.ar         1 SAH502   0.0000
    27 H1         -12.5314    63.8948    50.5601 H            1 SAH502   0.0000
    28 H2         -12.7688    65.4786    50.2410 H            1 SAH502   0.0000
    29 HA         -11.3258    64.7201    52.1850 H            1 SAH502   0.0000
    30 HB1         -8.9869    64.8179    51.3144 H            1 SAH502   0.0000
    31 HB2         -9.6424    64.6334    49.8301 H            1 SAH502   0.0000
    32 HG1        -10.4448    62.4444    50.4590 H            1 SAH502   0.0000
    33 HG2         -9.7824    62.6288    51.9402 H            1 SAH502   0.0000
    34 H5'1        -6.8432    61.1918    52.0632 H            1 SAH502   0.0000
    35 H5'2        -7.8595    62.2981    52.7035 H            1 SAH502   0.0000
    36 H4'         -5.6413    63.1684    51.1386 H            1 SAH502   0.0000
    37 H3'         -5.4386    62.5711    53.9607 H            1 SAH502   0.0000
    38 H12         -3.1218    62.2176    53.1728 H            1 SAH502   0.0000
    39 H2'         -4.0479    64.3952    54.2292 H            1 SAH502   0.0000
    40 H14         -3.5568    65.6294    52.1088 H            1 SAH502   0.0000
    41 H1'         -5.4579    66.0093    52.7060 H            1 SAH502   0.0000
    42 H16         -8.3425    64.6936    54.3052 H            1 SAH502   0.0000
    43 H17         -6.9395    68.0007    59.3042 H            1 SAH502   0.0000
    44 H18         -8.1654    67.0833    58.4945 H            1 SAH502   0.0000
    45 H19         -3.3151    67.7817    56.6852 H            1 SAH502   0.0000
    46 H20        -11.6492    64.6357    49.4027 H            1 SAH502   0.0000
@<TRIPOS>BOND
     1    1    2       1
     2    2    3       1
     3    2    6       1
     4    3    4       1
     5    4    5       1
     6    5    9       1
     7    6    7      ar
     8    6    8      ar
     9    9   10       1
    10   10   11       1
    11   10   12       1
    12   11   16       1
    13   12   13       1
    14   12   14       1
    15   14   15       1
    16   14   16       1
    17   16   17       1
    18   17   18       1
    19   17   26       1
    20   18   19       2
    21   19   20       1
    22   20   21      ar
    23   20   26      ar
    24   21   22       1
    25   21   23      ar
    26   23   24      ar
    27   24   25      ar
    28   25   26      ar
    29    1   27       1
    30    1   28       1
    31    2   29       1
    32    3   30       1
    33    3   31       1
    34    4   32       1
    35    4   33       1
    36    1   46       1
    37    9   34       1
    38    9   35       1
    39   10   36       1
    40   12   37       1
    41   13   38       1
    42   14   39       1
    43   15   40       1
    44   16   41       1
    45   18   42       1
    46   22   43       1
    47   22   44       1
    48   24   45       1
@<TRIPOS>SUBSTRUCTURE
     1 SAH502      1 GROUP             4 B     SAH     0 **** SAH B 502
