@<TRIPOS>MOLECULE
4d7m_TDC_1_ligand
   53    56     1     0     0
SMALL
NO_CHARGES


@<TRIPOS>ATOM
     1 O12         20.9840    33.9730    32.0110 O.2          1 TDC222   0.0000
     2 C12         20.4230    34.0910    33.1230 C.2          1 TDC222   0.0000
     3 C1B         20.0330    35.3750    33.6540 C.ar         1 TDC222   0.0000
     4 C11         20.3920    36.6150    33.0030 C.ar         1 TDC222   0.0000
     5 O11         21.1120    36.5730    31.8930 O.3          1 TDC222  -1.0000
     6 C1A         19.9120    37.8560    33.5750 C.ar         1 TDC222   0.0000
     7 C10         20.2320    39.0610    32.8180 C.ar         1 TDC222   0.0000
     8 O10         21.0150    38.9790    31.7180 O.3          1 TDC222   0.0000
     9 C9          19.8040    40.2290    33.3790 C.ar         1 TDC222   0.0000
    10 C8          19.1030    40.2250    34.5800 C.ar         1 TDC222   0.0000
    11 C7          18.7010    39.1270    35.2820 C.ar         1 TDC222   0.0000
    12 C61         19.1310    37.9000    34.8300 C.ar         1 TDC222   0.0000
    13 C6          18.8410    36.6880    35.5110 C.ar         1 TDC222   0.0000
    14 C62         18.0580    36.7120    36.7990 C.3          1 TDC222   0.0000
    15 C51         19.3180    35.4480    34.9720 C.ar         1 TDC222   0.0000
    16 C5          19.0860    34.1540    35.6740 C.3          1 TDC222   0.0000
    17 C1C         19.9760    32.8450    33.8200 C.3          1 TDC222   0.0000
    18 C1          18.5910    32.3820    33.4520 C.2          1 TDC222   0.0000
    19 O1          17.9660    32.9490    32.4810 O.2          1 TDC222   0.0000
    20 O1C         20.8590    31.8100    33.3780 O.3          1 TDC222   0.0000
    21 C41         20.0460    32.9990    35.3460 C.3          1 TDC222   0.0000
    22 C4          19.6290    31.7400    36.1230 C.3          1 TDC222   0.0000
    23 N4          20.8050    31.0890    36.6860 N.4          1 TDC222   1.0000
    24 C43         21.7650    30.3440    35.8140 C.3          1 TDC222   0.0000
    25 C42         21.4810    31.7160    37.8210 C.3          1 TDC222   0.0000
    26 C3          18.7640    30.7980    35.3610 C.2          1 TDC222   0.0000
    27 O3          18.6300    29.6250    35.8420 O.3          1 TDC222   0.0000
    28 C2          18.0610    31.2450    34.2330 C.2          1 TDC222   0.0000
    29 C21         16.8230    30.5680    33.8030 C.2          1 TDC222   0.0000
    30 O21         16.3600    29.6070    34.3670 O.2          1 TDC222   0.0000
    31 N21         16.2110    31.0300    32.7080 N.am         1 TDC222   0.0000
    32 H1          21.3738    38.0929    31.4246 H            1 TDC222   0.0000
    33 H2          19.9965    41.0971    32.9215 H            1 TDC222   0.0000
    34 H3          18.8703    41.1168    34.9679 H            1 TDC222   0.0000
    35 H4          18.1186    39.2098    36.0907 H            1 TDC222   0.0000
    36 H5          17.9466    35.7781    37.1388 H            1 TDC222   0.0000
    37 H6          18.5497    37.2573    37.4779 H            1 TDC222   0.0000
    38 H7          17.1583    37.1165    36.6347 H            1 TDC222   0.0000
    39 H8          18.1605    33.8501    35.4481 H            1 TDC222   0.0000
    40 H9          19.1490    34.3286    36.6566 H            1 TDC222   0.0000
    41 H1C         20.6059    30.9468    33.8148 H            1 TDC222   0.0000
    42 H11         20.9755    33.2571    35.6096 H            1 TDC222   0.0000
    43 H12         19.0841    32.0565    36.8995 H            1 TDC222   0.0000
    44 H13         22.5029    29.9689    36.3751 H            1 TDC222   0.0000
    45 H14         21.2855    29.5981    35.3517 H            1 TDC222   0.0000
    46 H15         22.1484    30.9670    35.1322 H            1 TDC222   0.0000
    47 H16         22.2637    31.1564    38.0934 H            1 TDC222   0.0000
    48 H17         21.7981    32.6273    37.5582 H            1 TDC222   0.0000
    49 H18         20.8435    31.7931    38.5876 H            1 TDC222   0.0000
    50 H19         18.0598    28.9530    35.3695 H            1 TDC222   0.0000
    51 H20         15.3693    30.5971    32.3854 H            1 TDC222   0.0000
    52 H21         16.5949    31.8085    32.2115 H            1 TDC222   0.0000
    53 H22         20.3671    30.3204    37.1523 H            1 TDC222   0.0000
@<TRIPOS>BOND
     1    1    2       2
     2    2    3       1
     3    2   17       1
     4    3    4      ar
     5    3   15      ar
     6    4    5       1
     7    4    6      ar
     8    6    7      ar
     9    6   12      ar
    10    7    8       1
    11    7    9      ar
    12    9   10      ar
    13   10   11      ar
    14   11   12      ar
    15   12   13      ar
    16   13   14       1
    17   13   15      ar
    18   15   16       1
    19   16   21       1
    20   17   18       1
    21   17   20       1
    22   17   21       1
    23   18   19       2
    24   18   28       1
    25   21   22       1
    26   22   23       1
    27   22   26       1
    28   23   24       1
    29   23   25       1
    30   26   27       1
    31   26   28       2
    32   28   29       1
    33   29   30       2
    34   29   31      am
    35   23   53       1
    36    8   32       1
    37    9   33       1
    38   10   34       1
    39   11   35       1
    40   14   36       1
    41   14   37       1
    42   14   38       1
    43   16   39       1
    44   16   40       1
    45   20   41       1
    46   21   42       1
    47   22   43       1
    48   24   44       1
    49   24   45       1
    50   24   46       1
    51   25   47       1
    52   25   48       1
    53   25   49       1
    54   27   50       1
    55   31   51       1
    56   31   52       1
@<TRIPOS>SUBSTRUCTURE
     1 TDC222      1 GROUP             4 A     TDC     0 **** TDC A 222
