@<TRIPOS>MOLECULE
1c2t_NHS_3_ligand
   54    56     1     0     0
SMALL
NO_CHARGES


@<TRIPOS>ATOM
     1 N1          37.2490    23.5520     6.2040 N.2          1 NHS220   0.0000
     2 C2          36.1100    23.0840     6.6250 C.2          1 NHS220   0.0000
     3 NA2         35.5530    23.5940     7.7620 N.pl3        1 NHS220   0.0000
     4 N3          35.4030    22.0400     5.8980 N.pl3        1 NHS220   0.0000
     5 C4          35.8910    21.4700     4.7420 C.2          1 NHS220   0.0000
     6 O4          35.2380    20.5920     4.1870 O.2          1 NHS220   0.0000
     7 C4A         37.2200    21.9760     4.2090 C.ar         1 NHS220   0.0000
     8 C5          37.8220    21.4700     3.0360 C.ar         1 NHS220   0.0000
     9 C6          39.0660    21.9820     2.5960 C.ar         1 NHS220   0.0000
    10 C7          39.7070    23.0110     3.3400 C.ar         1 NHS220   0.0000
    11 C8          39.1140    23.5300     4.5250 C.ar         1 NHS220   0.0000
    12 C8A         37.8800    23.0230     4.9790 C.ar         1 NHS220   0.0000
    13 C9          39.7120    21.4250     1.3180 C.3          1 NHS220   0.0000
    14 C10         40.3330    19.9700     1.2600 C.3          1 NHS220   0.0000
    15 C11         43.0650    19.2390     4.7430 C.ar         1 NHS220   0.0000
    16 C12         41.8400    18.4840     4.6380 C.ar         1 NHS220   0.0000
    17 C13         40.9350    18.6980     3.5370 C.ar         1 NHS220   0.0000
    18 C14         41.2580    19.6720     2.5170 C.ar         1 NHS220   0.0000
    19 C15         42.4690    20.4070     2.6450 C.ar         1 NHS220   0.0000
    20 C16         43.3450    20.1930     3.7260 C.ar         1 NHS220   0.0000
    21 C           44.0680    19.0410     5.8940 C.2          1 NHS220   0.0000
    22 O           43.8420    18.2050     6.8020 O.2          1 NHS220   0.0000
    23 N           45.2470    19.7960     5.8540 N.am         1 NHS220   0.0000
    24 CA          46.4410    19.8570     6.7800 C.3          1 NHS220   0.0000
    25 CB          45.9820    19.7510     8.2740 C.3          1 NHS220   0.0000
    26 CG          45.6410    21.0710     9.0550 C.3          1 NHS220   0.0000
    27 CD          45.5650    22.3450     8.2090 C.2          1 NHS220   0.0000
    28 OE1         44.5160    22.8410     7.8240 O.co2        1 NHS220   0.0000
    29 OE2         46.7980    22.8640     7.9220 O.co2        1 NHS220  -1.0000
    30 CT          47.6780    18.9280     6.4670 C.2          1 NHS220   0.0000
    31 O1          47.6290    17.6910     6.4840 O.co2        1 NHS220   0.0000
    32 O2          48.8180    19.6310     6.1630 O.co2        1 NHS220  -1.0000
    33 CA1         39.3970    18.7950     0.8920 C.2          1 NHS220   0.0000
    34 OA1         39.9690    17.7990     0.4320 O.co2        1 NHS220   0.0000
    35 OA2         38.3270    19.0360     0.3330 O.co2        1 NHS220  -1.0000
    36 HA21        34.6780    23.2400     8.0924 H            1 NHS220   0.0000
    37 HA22        36.0199    24.3216     8.2646 H            1 NHS220   0.0000
    38 H3          37.3679    20.7476     2.5146 H            1 NHS220   0.0000
    39 H4          40.5846    23.3740     3.0267 H            1 NHS220   0.0000
    40 H5          39.5739    24.2559     5.0365 H            1 NHS220   0.0000
    41 H6          40.4513    22.0550     1.0801 H            1 NHS220   0.0000
    42 H7          39.0062    21.4569     0.6103 H            1 NHS220   0.0000
    43 H8          40.9752    20.0137     0.4947 H            1 NHS220   0.0000
    44 H9          41.6164    17.8047     5.3369 H            1 NHS220   0.0000
    45 H10         40.0852    18.1742     3.4781 H            1 NHS220   0.0000
    46 H11         42.7029    21.0898     1.9529 H            1 NHS220   0.0000
    47 H12         44.1886    20.7272     3.7804 H            1 NHS220   0.0000
    48 H13         45.3112    20.4089     5.0664 H            1 NHS220   0.0000
    49 HA          46.7907    20.7891     6.6854 H            1 NHS220   0.0000
    50 HB1         46.7164    19.2938     8.7756 H            1 NHS220   0.0000
    51 HB2         45.1615    19.1795     8.2898 H            1 NHS220   0.0000
    52 HG1         46.3461    21.2065     9.7511 H            1 NHS220   0.0000
    53 HG2         44.7541    20.9443     9.4992 H            1 NHS220   0.0000
    54 H19         34.5239    21.7221     6.2531 H            1 NHS220   0.0000
@<TRIPOS>BOND
     1    1    2       2
     2    1   12       1
     3    2    3       1
     4    2    4       1
     5    4    5       1
     6    5    6       2
     7    5    7       1
     8    7    8      ar
     9    7   12      ar
    10    8    9      ar
    11    9   10      ar
    12    9   13       1
    13   10   11      ar
    14   11   12      ar
    15   13   14       1
    16   14   18       1
    17   14   33       1
    18   15   16      ar
    19   15   20      ar
    20   15   21       1
    21   16   17      ar
    22   17   18      ar
    23   18   19      ar
    24   19   20      ar
    25   21   22       2
    26   21   23      am
    27   23   24       1
    28   24   25       1
    29   24   30       1
    30   25   26       1
    31   26   27       1
    32   27   28      ar
    33   27   29      ar
    34   30   31      ar
    35   30   32      ar
    36   33   34      ar
    37   33   35      ar
    38    4   54       1
    39    3   36       1
    40    3   37       1
    41    8   38       1
    42   10   39       1
    43   11   40       1
    44   13   41       1
    45   13   42       1
    46   14   43       1
    47   16   44       1
    48   17   45       1
    49   19   46       1
    50   20   47       1
    51   23   48       1
    52   24   49       1
    53   25   50       1
    54   25   51       1
    55   26   52       1
    56   26   53       1
@<TRIPOS>SUBSTRUCTURE
     1 NHS220      1 GROUP             4 B     NHS     0 **** NHS B 220
