@<TRIPOS>MOLECULE
2vyn_NAD_2_ligand
   70    74     1     0     0
SMALL
NO_CHARGES


@<TRIPOS>ATOM
     1 PA          18.4560    32.0390    16.2180 P.3          1 NAD1336   0.0000
     2 O1A         19.8540    31.9000    16.6930 O.co2        1 NAD1336   0.0000
     3 O2A         17.6690    33.0160    16.9910 O.co2        1 NAD1336  -1.0000
     4 O5B         17.6970    30.6110    16.2550 O.3          1 NAD1336   0.0000
     5 C5B         18.3540    29.3770    16.0890 C.3          1 NAD1336   0.0000
     6 C4B         17.6440    28.4320    17.0380 C.3          1 NAD1336   0.0000
     7 O4B         17.8880    27.0920    16.6720 O.3          1 NAD1336   0.0000
     8 C3B         18.1370    28.6070    18.4650 C.3          1 NAD1336   0.0000
     9 O3B         17.0180    28.6780    19.3290 O.3          1 NAD1336   0.0000
    10 C2B         18.9280    27.3450    18.7370 C.3          1 NAD1336   0.0000
    11 O2B         18.8690    26.9870    20.0940 O.3          1 NAD1336   0.0000
    12 C1B         18.2220    26.3480    17.8320 C.3          1 NAD1336   0.0000
    13 N9A         19.0390    25.1960    17.4250 N.pl3        1 NAD1336   0.0000
    14 C8A         20.3990    25.1630    17.2490 C.2          1 NAD1336   0.0000
    15 N7A         20.7390    23.9200    16.8410 N.2          1 NAD1336   0.0000
    16 C5A         19.6240    23.1620    16.7430 C.ar         1 NAD1336   0.0000
    17 C6A         19.4150    21.8330    16.3690 C.ar         1 NAD1336   0.0000
    18 N6A         20.4400    21.0720    15.9870 N.pl3        1 NAD1336   0.0000
    19 N1A         18.1300    21.3260    16.3570 N.ar         1 NAD1336   0.0000
    20 C2A         17.0630    22.1300    16.7150 C.ar         1 NAD1336   0.0000
    21 N3A         17.2750    23.4440    17.0900 N.ar         1 NAD1336   0.0000
    22 C4A         18.5380    23.9540    17.1030 C.ar         1 NAD1336   0.0000
    23 O3          18.5200    32.4330    14.6660 O.3          1 NAD1336   0.0000
    24 PN          17.3120    33.1130    13.8510 P.3          1 NAD1336   0.0000
    25 O1N         15.9940    32.6380    14.3250 O.co2        1 NAD1336   0.0000
    26 O2N         17.6390    34.5580    13.7730 O.co2        1 NAD1336  -1.0000
    27 O5D         17.5970    32.4880    12.3880 O.3          1 NAD1336   0.0000
    28 C5D         17.2890    31.1630    12.0050 C.3          1 NAD1336   0.0000
    29 C4D         17.3250    31.0640    10.4780 C.3          1 NAD1336   0.0000
    30 O4D         16.4440    32.0020     9.8770 O.3          1 NAD1336   0.0000
    31 C3D         18.6910    31.3470     9.8740 C.3          1 NAD1336   0.0000
    32 O3D         18.7260    30.5740     8.6920 O.3          1 NAD1336   0.0000
    33 C2D         18.6230    32.8240     9.5320 C.3          1 NAD1336   0.0000
    34 O2D         19.5530    33.2200     8.5420 O.3          1 NAD1336   0.0000
    35 C1D         17.1670    32.9280     9.0690 C.3          1 NAD1336   0.0000
    36 N1N         16.5410    34.2680     9.1430 N.ar         1 NAD1336   1.0000
    37 C2N         16.7420    35.1200    10.2090 C.ar         1 NAD1336   0.0000
    38 C3N         16.1130    36.3750    10.2110 C.ar         1 NAD1336   0.0000
    39 C7N         16.3250    37.3600    11.3170 C.2          1 NAD1336   0.0000
    40 O7N         16.1510    38.7170    11.0330 O.2          1 NAD1336   0.0000
    41 N7N         16.6420    36.9540    12.5380 N.am         1 NAD1336   0.0000
    42 C4N         15.2870    36.7480     9.1460 C.ar         1 NAD1336   0.0000
    43 C5N         15.1000    35.8720     8.0750 C.ar         1 NAD1336   0.0000
    44 C6N         15.7310    34.6320     8.0960 C.ar         1 NAD1336   0.0000
    45 H5B1        19.3213    29.4574    16.3295 H            1 NAD1336   0.0000
    46 H5B2        18.2707    29.0573    15.1451 H            1 NAD1336   0.0000
    47 H4B         16.6603    28.6090    17.0049 H            1 NAD1336   0.0000
    48 H3B         18.7126    29.4201    18.5514 H            1 NAD1336   0.0000
    49 H5          16.4860    27.8344    19.2554 H            1 NAD1336   0.0000
    50 H2B         19.8786    27.4622    18.4497 H            1 NAD1336   0.0000
    51 H7          18.0862    26.3835    20.2458 H            1 NAD1336   0.0000
    52 H1B         17.3859    26.0259    18.2760 H            1 NAD1336   0.0000
    53 H8A         21.0290    25.9254    17.3967 H            1 NAD1336   0.0000
    54 H6A1        20.2844    20.1209    15.7202 H            1 NAD1336   0.0000
    55 H6A2        21.3648    21.4520    15.9671 H            1 NAD1336   0.0000
    56 H2A         16.1343    21.7595    16.7026 H            1 NAD1336   0.0000
    57 H5D1        16.3763    30.9223    12.3351 H            1 NAD1336   0.0000
    58 H5D2        17.9616    30.5357    12.3975 H            1 NAD1336   0.0000
    59 H4D         17.0419    30.1429    10.2107 H            1 NAD1336   0.0000
    60 H3D         19.4411    31.1301    10.4987 H            1 NAD1336   0.0000
    61 H17         19.6691    30.3040     8.4981 H            1 NAD1336   0.0000
    62 H2D         18.7555    33.3700    10.3593 H            1 NAD1336   0.0000
    63 H19         20.0892    32.4272     8.2522 H            1 NAD1336   0.0000
    64 H1D         17.1198    32.6152     8.1204 H            1 NAD1336   0.0000
    65 H2N         17.3288    34.8469    10.9713 H            1 NAD1336   0.0000
    66 H7N1        16.7807    37.6239    13.2674 H            1 NAD1336   0.0000
    67 H7N2        16.7425    35.9778    12.7300 H            1 NAD1336   0.0000
    68 H4N         14.8321    37.6385     9.1515 H            1 NAD1336   0.0000
    69 H5N         14.5202    36.1323     7.3030 H            1 NAD1336   0.0000
    70 H6N         15.5923    33.9962     7.3367 H            1 NAD1336   0.0000
@<TRIPOS>BOND
     1    1    2      ar
     2    1    3      ar
     3    1    4       1
     4    1   23       1
     5    4    5       1
     6    5    6       1
     7    6    7       1
     8    6    8       1
     9    7   12       1
    10    8    9       1
    11    8   10       1
    12   10   11       1
    13   10   12       1
    14   12   13       1
    15   13   14       1
    16   13   22       1
    17   14   15       2
    18   15   16       1
    19   16   17      ar
    20   16   22      ar
    21   17   18       1
    22   17   19      ar
    23   19   20      ar
    24   20   21      ar
    25   21   22      ar
    26   23   24       1
    27   24   25      ar
    28   24   26      ar
    29   24   27       1
    30   27   28       1
    31   28   29       1
    32   29   30       1
    33   29   31       1
    34   30   35       1
    35   31   32       1
    36   31   33       1
    37   33   34       1
    38   33   35       1
    39   35   36       1
    40   36   37      ar
    41   36   44      ar
    42   37   38      ar
    43   38   39       1
    44   38   42      ar
    45   39   40       2
    46   39   41      am
    47   42   43      ar
    48   43   44      ar
    49   44   70       1
    50    5   45       1
    51    5   46       1
    52    6   47       1
    53    8   48       1
    54    9   49       1
    55   10   50       1
    56   11   51       1
    57   12   52       1
    58   14   53       1
    59   18   54       1
    60   18   55       1
    61   20   56       1
    62   43   69       1
    63   28   57       1
    64   28   58       1
    65   29   59       1
    66   31   60       1
    67   32   61       1
    68   33   62       1
    69   34   63       1
    70   35   64       1
    71   37   65       1
    72   41   66       1
    73   41   67       1
    74   42   68       1
@<TRIPOS>SUBSTRUCTURE
     1 NAD1336     1 GROUP             4 B     NAD     0 **** NAD B1336
