@<TRIPOS>MOLECULE
2f3k_RO1_1_ligand
  106   109     1     0     0
SMALL
NO_CHARGES


@<TRIPOS>ATOM
     1 O6          15.7700    -5.1270    12.2670 O.2          1 RO1506   0.0000
     2 S1          15.5540    -5.9210    13.4740 S.o2         1 RO1506   0.0000
     3 O5          14.2570    -6.0150    14.1470 O.2          1 RO1506   0.0000
     4 C37         16.0560    -7.6330    13.1220 C.3          1 RO1506   0.0000
     5 C29         16.6390    -5.3060    14.6930 C.3          1 RO1506   0.0000
     6 C33         16.0350    -3.9760    15.1590 C.3          1 RO1506   0.0000
     7 C34         16.6740    -6.3150    15.8560 C.3          1 RO1506   0.0000
     8 C26         18.0660    -5.0040    14.1660 C.3          1 RO1506   0.0000
     9 N5          18.8140    -6.2220    13.8920 N.am         1 RO1506   0.0000
    10 C32         19.1180    -6.5170    12.6260 C.2          1 RO1506   0.0000
    11 O4          18.8050    -5.8080    11.6750 O.2          1 RO1506   0.0000
    12 C36         19.8780    -7.7950    12.3850 C.3          1 RO1506   0.0000
    13 O7          20.6150    -8.1490    13.5540 O.3          1 RO1506   0.0000
    14 C1          21.4940    -9.2070    13.5410 C.ar         1 RO1506   0.0000
    15 C2          22.2590    -9.4890    12.4140 C.ar         1 RO1506   0.0000
    16 C4          23.1280   -10.5680    12.4440 C.ar         1 RO1506   0.0000
    17 C3          23.2310   -11.3400    13.5950 C.ar         1 RO1506   0.0000
    18 N1          22.4930   -11.0430    14.6740 N.ar         1 RO1506   0.0000
    19 C5          21.6370   -10.0070    14.6720 C.ar         1 RO1506   0.0000
    20 C24         18.8620    -4.0970    15.0890 C.2          1 RO1506   0.0000
    21 O3          18.9770    -4.3570    16.2810 O.2          1 RO1506   0.0000
    22 N4          19.4840    -3.0510    14.5120 N.am         1 RO1506   0.0000
    23 C15         20.2730    -2.0690    15.2700 C.3          1 RO1506   0.0000
    24 C19         21.7550    -2.1820    14.8640 C.3          1 RO1506   0.0000
    25 C25         22.2370    -3.6160    14.8780 C.ar         1 RO1506   0.0000
    26 C27         22.4170    -4.3050    13.6760 C.ar         1 RO1506   0.0000
    27 C30         22.8580    -5.6250    13.6920 C.ar         1 RO1506   0.0000
    28 C35         23.1240    -6.2550    14.9040 C.ar         1 RO1506   0.0000
    29 C31         22.9640    -5.5620    16.0990 C.ar         1 RO1506   0.0000
    30 C28         22.5160    -4.2490    16.0860 C.ar         1 RO1506   0.0000
    31 C12         19.6930    -0.6920    14.9190 C.3          1 RO1506   0.0000
    32 O2          20.0520    -0.3750    13.5760 O.3          1 RO1506   0.0000
    33 C8          20.2220     0.4210    15.8340 C.3          1 RO1506   0.0000
    34 N2          19.4820     0.4190    17.1000 N.4          1 RO1506   1.0000
    35 C6          20.3300     0.9960    18.1580 C.3          1 RO1506   0.0000
    36 C10         21.6340     0.2910    18.3870 C.2          1 RO1506   0.0000
    37 O1          21.7130    -0.9390    18.3540 O.2          1 RO1506   0.0000
    38 N3          22.6440     1.1180    18.6640 N.am         1 RO1506   0.0000
    39 C17         24.0090     0.7090    18.9410 C.3          1 RO1506   0.0000
    40 C23         24.0710    -0.0230    20.2830 C.3          1 RO1506   0.0000
    41 C22         24.8800     1.9580    19.0250 C.3          1 RO1506   0.0000
    42 C21         24.5080    -0.1890    17.8090 C.3          1 RO1506   0.0000
    43 C9          19.5610     0.9050    19.4760 C.3          1 RO1506   0.0000
    44 C13         18.2810     1.7080    19.3790 C.3          1 RO1506   0.0000
    45 C11         17.4420     1.2040    18.2180 C.3          1 RO1506   0.0000
    46 C14         16.8420    -0.1680    18.4950 C.3          1 RO1506   0.0000
    47 C7          18.2510     1.2020    16.9170 C.3          1 RO1506   0.0000
    48 C16         17.5030     1.6830    20.6900 C.3          1 RO1506   0.0000
    49 C20         16.8580     0.3300    20.9610 C.3          1 RO1506   0.0000
    50 C18         16.0170    -0.1390    19.7730 C.3          1 RO1506   0.0000
    51 H1          15.9162    -8.1956    13.9368 H            1 RO1506   0.0000
    52 H2          15.5053    -7.9938    12.3693 H            1 RO1506   0.0000
    53 H3          17.0226    -7.6511    12.8663 H            1 RO1506   0.0000
    54 H4          16.6190    -3.5735    15.8640 H            1 RO1506   0.0000
    55 H5          15.9697    -3.3493    14.3825 H            1 RO1506   0.0000
    56 H6          15.1224    -4.1377    15.5345 H            1 RO1506   0.0000
    57 H7          17.2917    -5.9815    16.5682 H            1 RO1506   0.0000
    58 H8          15.7543    -6.4194    16.2345 H            1 RO1506   0.0000
    59 H9          16.9987    -7.1993    15.5204 H            1 RO1506   0.0000
    60 H10         17.9623    -4.5208    13.2967 H            1 RO1506   0.0000
    61 H11         19.0948    -6.8263    14.6377 H            1 RO1506   0.0000
    62 H12         20.5101    -7.6659    11.6209 H            1 RO1506   0.0000
    63 H13         19.2338    -8.5274    12.1646 H            1 RO1506   0.0000
    64 H14         22.1830    -8.9214    11.5942 H            1 RO1506   0.0000
    65 H15         23.6793   -10.7905    11.6399 H            1 RO1506   0.0000
    66 H16         23.8574   -12.1192    13.6184 H            1 RO1506   0.0000
    67 H17         21.0976    -9.8086    15.4904 H            1 RO1506   0.0000
    68 H18         19.4055    -2.9370    13.5216 H            1 RO1506   0.0000
    69 H19         20.1754    -2.2389    16.2506 H            1 RO1506   0.0000
    70 H20         22.3072    -1.6492    15.5052 H            1 RO1506   0.0000
    71 H21         21.8664    -1.8127    13.9414 H            1 RO1506   0.0000
    72 H22         22.2292    -3.8504    12.8053 H            1 RO1506   0.0000
    73 H23         22.9837    -6.1207    12.8326 H            1 RO1506   0.0000
    74 H24         23.4304    -7.2068    14.9156 H            1 RO1506   0.0000
    75 H25         23.1720    -6.0104    16.9683 H            1 RO1506   0.0000
    76 H26         22.3931    -3.7558    16.9472 H            1 RO1506   0.0000
    77 H27         18.6963    -0.7288    14.9912 H            1 RO1506   0.0000
    78 H28         20.9262     0.1106    13.5704 H            1 RO1506   0.0000
    79 H29         20.1045     1.3055    15.3825 H            1 RO1506   0.0000
    80 H30         21.1929     0.2665    16.0170 H            1 RO1506   0.0000
    81 H31         20.5088     1.9572    17.9478 H            1 RO1506   0.0000
    82 H32         22.4446     2.0978    18.6822 H            1 RO1506   0.0000
    83 H33         25.0135    -0.3017    20.4674 H            1 RO1506   0.0000
    84 H34         23.7553     0.5866    21.0101 H            1 RO1506   0.0000
    85 H35         23.4847    -0.8324    20.2486 H            1 RO1506   0.0000
    86 H36         25.8252     1.6930    19.2157 H            1 RO1506   0.0000
    87 H37         24.8409     2.4508    18.1557 H            1 RO1506   0.0000
    88 H38         24.5451     2.5492    19.7587 H            1 RO1506   0.0000
    89 H39         25.4484    -0.4720    17.9979 H            1 RO1506   0.0000
    90 H40         23.9235    -0.9977    17.7427 H            1 RO1506   0.0000
    91 H41         24.4786     0.3152    16.9459 H            1 RO1506   0.0000
    92 H42         20.1263     1.2693    20.2161 H            1 RO1506   0.0000
    93 H43         19.3394    -0.0515    19.6658 H            1 RO1506   0.0000
    94 H44         18.5290     2.6578    19.1881 H            1 RO1506   0.0000
    95 H45         16.6829     1.8438    18.0974 H            1 RO1506   0.0000
    96 H46         17.5795    -0.8360    18.5942 H            1 RO1506   0.0000
    97 H47         16.2546    -0.4312    17.7297 H            1 RO1506   0.0000
    98 H48         17.7036     0.7948    16.1859 H            1 RO1506   0.0000
    99 H49         18.4883     2.1420    16.6717 H            1 RO1506   0.0000
   100 H50         16.7851     2.3780    20.6500 H            1 RO1506   0.0000
   101 H51         18.1306     1.8947    21.4392 H            1 RO1506   0.0000
   102 H52         16.2693     0.4062    21.7657 H            1 RO1506   0.0000
   103 H53         17.5765    -0.3431    21.1361 H            1 RO1506   0.0000
   104 H54         15.6721    -1.0588    19.9600 H            1 RO1506   0.0000
   105 H55         15.2470     0.4872    19.6505 H            1 RO1506   0.0000
   106 H56         19.2434    -0.5213    17.3427 H            1 RO1506   0.0000
@<TRIPOS>BOND
     1    1    2       2
     2    2    3       2
     3    2    4       1
     4    2    5       1
     5    5    6       1
     6    5    7       1
     7    5    8       1
     8    8    9       1
     9    8   20       1
    10    9   10      am
    11   10   11       2
    12   10   12       1
    13   12   13       1
    14   13   14       1
    15   14   15      ar
    16   14   19      ar
    17   15   16      ar
    18   16   17      ar
    19   17   18      ar
    20   18   19      ar
    21   20   21       2
    22   20   22      am
    23   22   23       1
    24   23   24       1
    25   23   31       1
    26   24   25       1
    27   25   26      ar
    28   25   30      ar
    29   26   27      ar
    30   27   28      ar
    31   28   29      ar
    32   29   30      ar
    33   31   32       1
    34   31   33       1
    35   33   34       1
    36   34   35       1
    37   34   47       1
    38   35   36       1
    39   35   43       1
    40   36   37       2
    41   36   38      am
    42   38   39       1
    43   39   40       1
    44   39   41       1
    45   39   42       1
    46   43   44       1
    47   44   45       1
    48   44   48       1
    49   45   46       1
    50   45   47       1
    51   46   50       1
    52   48   49       1
    53   49   50       1
    54    4   51       1
    55    4   52       1
    56    4   53       1
    57    6   54       1
    58    6   55       1
    59    6   56       1
    60    7   57       1
    61    7   58       1
    62    7   59       1
    63    8   60       1
    64    9   61       1
    65   12   62       1
    66   12   63       1
    67   15   64       1
    68   16   65       1
    69   17   66       1
    70   19   67       1
    71   22   68       1
    72   23   69       1
    73   24   70       1
    74   24   71       1
    75   26   72       1
    76   27   73       1
    77   28   74       1
    78   29   75       1
    79   30   76       1
    80   31   77       1
    81   32   78       1
    82   33   79       1
    83   33   80       1
    84   35   81       1
    85   38   82       1
    86   40   83       1
    87   40   84       1
    88   40   85       1
    89   41   86       1
    90   41   87       1
    91   41   88       1
    92   42   89       1
    93   42   90       1
    94   42   91       1
    95   43   92       1
    96   43   93       1
    97   44   94       1
    98   45   95       1
    99   46   96       1
   100   46   97       1
   101   47   98       1
   102   47   99       1
   103   48  100       1
   104   48  101       1
   105   49  102       1
   106   49  103       1
   107   50  104       1
   108   50  105       1
   109   34  106       1
@<TRIPOS>SUBSTRUCTURE
     1 RO1506      1 GROUP             4 A     RO1     0 **** RO1 A 506
