@<TRIPOS>MOLECULE
2q97_ATP_1_ligand
   43    45     1     0     0
SMALL
NO_CHARGES


@<TRIPOS>ATOM
     1 PG          38.3860    14.1940   152.3340 P.3          1 ATP1001   0.0000
     2 O1G         37.7630    12.9480   152.8930 O.co2        1 ATP1001   0.0000
     3 O2G         39.8550    13.9690   152.1130 O.co2        1 ATP1001  -1.0000
     4 O3G         37.5880    14.7990   151.2240 O.co2        1 ATP1001  -1.0000
     5 PB          39.4200    16.2570   154.0410 P.3          1 ATP1001   0.0000
     6 O1B         38.6990    17.4920   154.5010 O.co2        1 ATP1001   0.0000
     7 O2B         40.5420    16.4220   153.0420 O.co2        1 ATP1001  -1.0000
     8 O3B         38.2540    15.2870   153.4930 O.3          1 ATP1001   0.0000
     9 PA          41.3530    15.6690   156.0270 P.3          1 ATP1001   0.0000
    10 O1A         41.4380    17.1610   156.1000 O.co2        1 ATP1001   0.0000
    11 O2A         42.4920    14.7860   155.6400 O.co2        1 ATP1001  -1.0000
    12 O3A         40.0110    15.3430   155.2090 O.3          1 ATP1001   0.0000
    13 O5'         41.0010    15.1240   157.5030 O.3          1 ATP1001   0.0000
    14 C5'         39.9860    15.7570   158.3020 C.3          1 ATP1001   0.0000
    15 C4'         39.3360    14.6670   159.1410 C.3          1 ATP1001   0.0000
    16 O4'         40.3260    14.0060   159.9400 O.3          1 ATP1001   0.0000
    17 C3'         38.2890    15.1710   160.1170 C.3          1 ATP1001   0.0000
    18 O3'         37.3220    14.1220   160.2470 O.3          1 ATP1001   0.0000
    19 C2'         39.0310    15.2210   161.4100 C.3          1 ATP1001   0.0000
    20 O2'         38.1790    15.0070   162.5190 O.3          1 ATP1001   0.0000
    21 C1'         39.8570    13.9790   161.2860 C.3          1 ATP1001   0.0000
    22 N9          40.9600    14.0970   162.2320 N.pl3        1 ATP1001   0.0000
    23 C8          41.7910    15.1380   162.3400 C.2          1 ATP1001   0.0000
    24 N7          42.6890    14.9050   163.3230 N.2          1 ATP1001   0.0000
    25 C5          42.4260    13.7090   163.8390 C.ar         1 ATP1001   0.0000
    26 C6          42.9860    12.9000   164.9070 C.ar         1 ATP1001   0.0000
    27 N6          44.0520    13.3290   165.6100 N.pl3        1 ATP1001   0.0000
    28 N1          42.4030    11.7080   165.1400 N.ar         1 ATP1001   0.0000
    29 C2          41.3340    11.2700   164.4280 C.ar         1 ATP1001   0.0000
    30 N3          40.7740    11.9730   163.4400 N.ar         1 ATP1001   0.0000
    31 C4          41.2740    13.1780   163.1200 C.ar         1 ATP1001   0.0000
    32 H5'1        39.3039    16.1887   157.7117 H            1 ATP1001   0.0000
    33 H5'2        40.3979    16.4479   158.8961 H            1 ATP1001   0.0000
    34 H4'         38.9133    13.9974   158.5303 H            1 ATP1001   0.0000
    35 H3'         37.8899    16.0492   159.8535 H            1 ATP1001   0.0000
    36 H5          36.4249    14.4581   159.9601 H            1 ATP1001   0.0000
    37 H2'         39.5872    16.0467   161.5042 H            1 ATP1001   0.0000
    38 H7          38.5352    15.4998   163.3129 H            1 ATP1001   0.0000
    39 H1'         39.3112    13.1603   161.4644 H            1 ATP1001   0.0000
    40 H9          41.7540    15.9646   161.7784 H            1 ATP1001   0.0000
    41 H10         44.4283    12.7625   166.3431 H            1 ATP1001   0.0000
    42 H11         44.4670    14.2139   165.3987 H            1 ATP1001   0.0000
    43 H12         40.9462    10.3765   164.6543 H            1 ATP1001   0.0000
@<TRIPOS>BOND
     1    1    2      ar
     2    1    3      ar
     3    1    4      ar
     4    1    8       1
     5    5    6      ar
     6    5    7      ar
     7    5    8       1
     8    5   12       1
     9    9   10      ar
    10    9   11      ar
    11    9   12       1
    12    9   13       1
    13   13   14       1
    14   14   15       1
    15   15   16       1
    16   15   17       1
    17   16   21       1
    18   17   18       1
    19   17   19       1
    20   19   20       1
    21   19   21       1
    22   21   22       1
    23   22   23       1
    24   22   31       1
    25   23   24       2
    26   24   25       1
    27   25   26      ar
    28   25   31      ar
    29   26   27       1
    30   26   28      ar
    31   28   29      ar
    32   29   30      ar
    33   30   31      ar
    34   29   43       1
    35   27   42       1
    36   27   41       1
    37   23   40       1
    38   14   32       1
    39   14   33       1
    40   15   34       1
    41   17   35       1
    42   18   36       1
    43   19   37       1
    44   20   38       1
    45   21   39       1
@<TRIPOS>SUBSTRUCTURE
     1 ATP1001     1 GROUP             4 A     ATP     0 **** ATP A1001
