@<TRIPOS>MOLECULE
4fog_C2F_2_ligand
   56    58     1     0     0
SMALL
NO_CHARGES


@<TRIPOS>ATOM
     1 N1          58.5210    -4.1170    -7.9680 N.2          1 C2F302   0.0000
     2 C2          58.8180    -2.6920    -7.6340 C.2          1 C2F302   0.0000
     3 NA2         59.8400    -1.9470    -8.3670 N.pl3        1 C2F302   0.0000
     4 N3          58.0510    -1.9950    -6.5040 N.pl3        1 C2F302   0.0000
     5 C4          57.0490    -2.7020    -5.7580 C.2          1 C2F302   0.0000
     6 O4          56.3710    -2.0170    -4.7150 O.2          1 C2F302   0.0000
     7 C4A         56.7430    -4.1930    -6.1050 C.2          1 C2F302   0.0000
     8 N5          55.7320    -4.9490    -5.4130 N.pl3        1 C2F302   0.0000
     9 C6          54.9680    -5.9030    -6.2900 C.3          1 C2F302   0.0000
    10 C7          55.8850    -6.8770    -7.1060 C.3          1 C2F302   0.0000
    11 N8          57.1630    -6.2640    -7.5030 N.pl3        1 C2F302   0.0000
    12 C8A         57.4710    -4.8570    -7.1900 C.2          1 C2F302   0.0000
    13 C9          53.6020    -5.4850    -6.8990 C.3          1 C2F302   0.0000
    14 N10         53.2120    -4.2880    -6.1400 N.pl3        1 C2F302   0.0000
    15 C11         54.9980    -4.2430    -4.3510 C.3          1 C2F302   0.0000
    16 C12         52.2190    -0.2890    -8.1790 C.ar         1 C2F302   0.0000
    17 C13         52.9140    -1.4430    -9.0420 C.ar         1 C2F302   0.0000
    18 C14         53.2930    -2.8140    -8.3360 C.ar         1 C2F302   0.0000
    19 C15         52.9600    -3.0000    -6.8000 C.ar         1 C2F302   0.0000
    20 C16         52.2610    -1.8500    -5.9580 C.ar         1 C2F302   0.0000
    21 C17         51.8870    -0.4770    -6.6640 C.ar         1 C2F302   0.0000
    22 C           51.7420     1.0230    -8.8360 C.2          1 C2F302   0.0000
    23 O           51.8560     1.1540   -10.0190 O.2          1 C2F302   0.0000
    24 N           50.6300     1.6880    -8.1230 N.am         1 C2F302   0.0000
    25 CA          49.9850     2.9040    -8.6740 C.3          1 C2F302   0.0000
    26 CB          48.4940     2.9000    -8.1950 C.3          1 C2F302   0.0000
    27 CG          47.5740     2.5270    -9.3910 C.3          1 C2F302   0.0000
    28 CD          48.0470     1.1790   -10.0020 C.2          1 C2F302   0.0000
    29 OE1         48.1000     1.2890   -11.4100 O.co2        1 C2F302   0.0000
    30 OE2         47.1250     0.1780    -9.6530 O.co2        1 C2F302  -1.0000
    31 CT          50.7330     4.1750    -8.1820 C.2          1 C2F302   0.0000
    32 O1          51.0260     4.2900    -7.0340 O.co2        1 C2F302   0.0000
    33 O2          51.3140     5.0480    -9.1320 O.co2        1 C2F302  -1.0000
    34 HA21        60.0282    -0.9933    -8.1324 H            1 C2F302   0.0000
    35 HA22        60.3509    -2.3910    -9.1030 H            1 C2F302   0.0000
    36 H3          54.6430    -6.5386    -5.5897 H            1 C2F302   0.0000
    37 H4          55.3962    -7.1585    -7.9317 H            1 C2F302   0.0000
    38 H5          56.0780    -7.6804    -6.5427 H            1 C2F302   0.0000
    39 H6          57.8371    -6.8142    -7.9959 H            1 C2F302   0.0000
    40 H7          52.9259    -6.2127    -6.7835 H            1 C2F302   0.0000
    41 H8          53.6989    -5.2712    -7.8711 H            1 C2F302   0.0000
    42 H9          53.1156    -4.3523    -5.1467 H            1 C2F302   0.0000
    43 H10         54.3262    -4.8610    -3.9427 H            1 C2F302   0.0000
    44 H11         55.6404    -3.9377    -3.6481 H            1 C2F302   0.0000
    45 H12         54.5286    -3.4506    -4.7404 H            1 C2F302   0.0000
    46 H13         53.1072    -1.3028   -10.0131 H            1 C2F302   0.0000
    47 H14         53.7345    -3.5473    -8.8531 H            1 C2F302   0.0000
    48 H15         52.0573    -1.9891    -4.9889 H            1 C2F302   0.0000
    49 H16         51.4456     0.2560    -6.1464 H            1 C2F302   0.0000
    50 H17         50.3077     1.3112    -7.2546 H            1 C2F302   0.0000
    51 HA          50.0121     2.8696    -9.6730 H            1 C2F302   0.0000
    52 HB1         48.2494     3.8082    -7.8554 H            1 C2F302   0.0000
    53 HB2         48.3797     2.2284    -7.4629 H            1 C2F302   0.0000
    54 HG1         47.6227     3.2442   -10.0862 H            1 C2F302   0.0000
    55 HG2         46.6309     2.4361    -9.0713 H            1 C2F302   0.0000
    56 H23         58.2505    -1.0399    -6.2849 H            1 C2F302   0.0000
@<TRIPOS>BOND
     1    1    2       2
     2    1   12       1
     3    2    3       1
     4    2    4       1
     5    4    5       1
     6    5    6       2
     7    5    7       1
     8    7    8       1
     9    7   12       2
    10    8    9       1
    11    8   15       1
    12    9   10       1
    13    9   13       1
    14   10   11       1
    15   11   12       1
    16   13   14       1
    17   14   19       1
    18   16   17      ar
    19   16   21      ar
    20   16   22       1
    21   17   18      ar
    22   18   19      ar
    23   19   20      ar
    24   20   21      ar
    25   22   23       2
    26   22   24      am
    27   24   25       1
    28   25   26       1
    29   25   31       1
    30   26   27       1
    31   27   28       1
    32   28   29      ar
    33   28   30      ar
    34   31   32      ar
    35   31   33      ar
    36    4   56       1
    37    3   34       1
    38    3   35       1
    39    9   36       1
    40   10   37       1
    41   10   38       1
    42   11   39       1
    43   13   40       1
    44   13   41       1
    45   14   42       1
    46   15   43       1
    47   15   44       1
    48   15   45       1
    49   17   46       1
    50   18   47       1
    51   20   48       1
    52   21   49       1
    53   24   50       1
    54   25   51       1
    55   26   52       1
    56   26   53       1
    57   27   54       1
    58   27   55       1
@<TRIPOS>SUBSTRUCTURE
     1 C2F302      1 GROUP             4 C     C2F     0 **** C2F C 302
