@<TRIPOS>MOLECULE
3dys_IBM_2_ligand
   30    31     1     0     0
SMALL
NO_CHARGES


@<TRIPOS>ATOM
     1 N9          97.7570    19.8510    12.3050 N.pl3        1 IBM900   0.0000
     2 C8          98.0390    19.6470    10.9950 C.2          1 IBM900   0.0000
     3 N7          97.6620    20.7200    10.2660 N.2          1 IBM900   0.0000
     4 C5          97.1350    21.6240    11.1220 C.2          1 IBM900   0.0000
     5 C4          97.1970    21.0730    12.3930 C.2          1 IBM900   0.0000
     6 N3          96.7550    21.6960    13.5070 N.pl3        1 IBM900   0.0000
     7 C2          96.2300    22.9510    13.3630 C.2          1 IBM900   0.0000
     8 N1          96.1500    23.5600    12.0640 N.pl3        1 IBM900   0.0000
     9 C6          96.5950    22.8800    10.9730 C.2          1 IBM900   0.0000
    10 O6          96.5430    23.3400     9.8240 O.2          1 IBM900   0.0000
    11 O2          95.7860    23.6090    14.3410 O.2          1 IBM900   0.0000
    12 C10         95.5560    24.9030    11.9600 C.3          1 IBM900   0.0000
    13 C11         96.9300    21.0060    14.8030 C.3          1 IBM900   0.0000
    14 C12         95.7570    21.0220    15.7770 C.3          1 IBM900   0.0000
    15 C13         96.1000    20.1560    16.9840 C.3          1 IBM900   0.0000
    16 C14         94.4680    20.5220    15.1200 C.3          1 IBM900   0.0000
    17 H1          97.9308    19.2178    13.0592 H            1 IBM900   0.0000
    18 H2          98.4643    18.8222    10.6224 H            1 IBM900   0.0000
    19 H3          95.5661    25.1989    11.0048 H            1 IBM900   0.0000
    20 H4          94.6127    24.8768    12.2909 H            1 IBM900   0.0000
    21 H5          96.0857    25.5456    12.5137 H            1 IBM900   0.0000
    22 H6          97.7082    21.4311    15.2653 H            1 IBM900   0.0000
    23 H7          97.1417    20.0488    14.6058 H            1 IBM900   0.0000
    24 H8          95.6132    21.9613    16.0884 H            1 IBM900   0.0000
    25 H9          95.3343    20.1622    17.6271 H            1 IBM900   0.0000
    26 H10         96.2747    19.2186    16.6828 H            1 IBM900   0.0000
    27 H11         96.9160    20.5192    17.4337 H            1 IBM900   0.0000
    28 H12         93.7229    20.5465    15.7865 H            1 IBM900   0.0000
    29 H13         94.2401    21.1094    14.3435 H            1 IBM900   0.0000
    30 H14         94.5989    19.5834    14.8008 H            1 IBM900   0.0000
@<TRIPOS>BOND
     1    1    2       1
     2    1    5       1
     3    2    3       2
     4    3    4       1
     5    4    5       2
     6    4    9       1
     7    5    6       1
     8    6    7       1
     9    6   13       1
    10    7    8       1
    11    7   11       2
    12    8    9       1
    13    8   12       1
    14    9   10       2
    15   13   14       1
    16   14   15       1
    17   14   16       1
    18    1   17       1
    19    2   18       1
    20   12   19       1
    21   12   20       1
    22   12   21       1
    23   13   22       1
    24   13   23       1
    25   14   24       1
    26   15   25       1
    27   15   26       1
    28   15   27       1
    29   16   28       1
    30   16   29       1
    31   16   30       1
@<TRIPOS>SUBSTRUCTURE
     1 IBM900      1 GROUP             4 B     IBM     0 **** IBM B 900
