@<TRIPOS>MOLECULE
4dpu_AGS_2_ligand
   43    45     1     0     0
SMALL
NO_CHARGES


@<TRIPOS>ATOM
     1 PG          20.1800   -36.0420   -53.0630 P.3          1 AGS402   0.0000
     2 S1G         21.3580   -34.8130   -54.1910 S.2          1 AGS402   0.0000
     3 O2G         20.3810   -37.4710   -53.4300 O.co2        1 AGS402  -1.0000
     4 O3G         18.7550   -35.8600   -53.3940 O.co2        1 AGS402  -1.0000
     5 PB          20.4970   -37.0150   -50.5810 P.3          1 AGS402   0.0000
     6 O1B         21.5500   -37.9720   -51.0410 O.co2        1 AGS402   0.0000
     7 O2B         20.8340   -36.5250   -49.1540 O.co2        1 AGS402  -1.0000
     8 O3B         20.4470   -35.8060   -51.5370 O.3          1 AGS402   0.0000
     9 PA          18.8870   -39.0800   -51.3730 P.3          1 AGS402   0.0000
    10 O1A         18.5680   -38.7520   -52.8260 O.co2        1 AGS402   0.0000
    11 O2A         17.7090   -39.9000   -50.7560 O.co2        1 AGS402  -1.0000
    12 O3A         19.0750   -37.7520   -50.5720 O.3          1 AGS402   0.0000
    13 O5'         20.2480   -39.9450   -51.3050 O.3          1 AGS402   0.0000
    14 C5'         20.9040   -40.1170   -50.0960 C.3          1 AGS402   0.0000
    15 C4'         21.9260   -41.1520   -50.0290 C.3          1 AGS402   0.0000
    16 O4'         23.1740   -40.5570   -49.9450 O.3          1 AGS402   0.0000
    17 C3'         21.7670   -41.9440   -48.8020 C.3          1 AGS402   0.0000
    18 O3'         21.3390   -43.2150   -49.1400 O.3          1 AGS402   0.0000
    19 C2'         23.0550   -42.0270   -48.2190 C.3          1 AGS402   0.0000
    20 O2'         23.4030   -43.3710   -48.0440 O.3          1 AGS402   0.0000
    21 C1'         23.9630   -41.4070   -49.1730 C.3          1 AGS402   0.0000
    22 N9          24.9760   -40.6090   -48.5830 N.pl3        1 AGS402   0.0000
    23 C8          24.8110   -39.4780   -47.8820 C.2          1 AGS402   0.0000
    24 N7          26.0130   -39.0290   -47.4960 N.2          1 AGS402   0.0000
    25 C5          26.9510   -39.8800   -47.9540 C.ar         1 AGS402   0.0000
    26 C6          28.3460   -39.9380   -47.8710 C.ar         1 AGS402   0.0000
    27 N6          29.0730   -38.9370   -47.1780 N.pl3        1 AGS402   0.0000
    28 N1          28.9830   -40.9570   -48.4610 N.ar         1 AGS402   0.0000
    29 C2          28.3370   -41.9140   -49.1210 C.ar         1 AGS402   0.0000
    30 N3          27.0020   -41.8830   -49.2150 N.ar         1 AGS402   0.0000
    31 C4          26.2950   -40.8880   -48.6470 C.ar         1 AGS402   0.0000
    32 H5'1        20.2119   -40.3339   -49.4075 H            1 AGS402   0.0000
    33 H5'2        21.3419   -39.2479   -49.8661 H            1 AGS402   0.0000
    34 H4'         21.8758   -41.7433   -50.8339 H            1 AGS402   0.0000
    35 H3'         21.1212   -41.5057   -48.1769 H            1 AGS402   0.0000
    36 H5          22.0084   -43.8872   -48.8237 H            1 AGS402   0.0000
    37 H2'         23.0775   -41.5412   -47.3452 H            1 AGS402   0.0000
    38 H7          23.5631   -43.5502   -47.0733 H            1 AGS402   0.0000
    39 H1'         24.3770   -42.1079   -49.7538 H            1 AGS402   0.0000
    40 H9          23.9344   -39.0411   -47.6803 H            1 AGS402   0.0000
    41 H10         30.0702   -38.9893   -47.1255 H            1 AGS402   0.0000
    42 H11         28.5884   -38.1788   -46.7418 H            1 AGS402   0.0000
    43 H12         28.8499   -42.6587   -49.5481 H            1 AGS402   0.0000
@<TRIPOS>BOND
     1    1    2       2
     2    1    3      ar
     3    1    4      ar
     4    1    8       1
     5    5    6      ar
     6    5    7      ar
     7    5    8       1
     8    5   12       1
     9    9   10      ar
    10    9   11      ar
    11    9   12       1
    12    9   13       1
    13   13   14       1
    14   14   15       1
    15   15   16       1
    16   15   17       1
    17   16   21       1
    18   17   18       1
    19   17   19       1
    20   19   20       1
    21   19   21       1
    22   21   22       1
    23   22   23       1
    24   22   31       1
    25   23   24       2
    26   24   25       1
    27   25   26      ar
    28   25   31      ar
    29   26   27       1
    30   26   28      ar
    31   28   29      ar
    32   29   30      ar
    33   30   31      ar
    34   29   43       1
    35   27   42       1
    36   27   41       1
    37   23   40       1
    38   14   32       1
    39   14   33       1
    40   15   34       1
    41   17   35       1
    42   18   36       1
    43   19   37       1
    44   20   38       1
    45   21   39       1
@<TRIPOS>SUBSTRUCTURE
     1 AGS402      1 GROUP             4 B     AGS     0 **** AGS B 402
