@<TRIPOS>MOLECULE
3ue6_FMN_4_ligand
   50    52     1     0     0
SMALL
NO_CHARGES


@<TRIPOS>ATOM
     1 N1          -6.4330   -41.6090   -16.9710 N.2          1 FMN500   0.0000
     2 C2          -7.3670   -40.6420   -17.2990 C.2          1 FMN500   0.0000
     3 O2          -7.6110   -40.3890   -18.4780 O.2          1 FMN500   0.0000
     4 N3          -8.0310   -39.9540   -16.3040 N.pl3        1 FMN500   0.0000
     5 C4          -7.7650   -40.2290   -14.9780 C.2          1 FMN500   0.0000
     6 O4          -8.3520   -39.6200   -14.0860 O.2          1 FMN500   0.0000
     7 C4A         -6.8280   -41.2020   -14.6440 C.2          1 FMN500   0.0000
     8 N5          -6.5630   -41.4780   -13.3170 N.2          1 FMN500   0.0000
     9 C5A         -5.6370   -42.4380   -12.9750 C.ar         1 FMN500   0.0000
    10 C6          -5.3770   -42.7070   -11.6330 C.ar         1 FMN500   0.0000
    11 C7          -4.4450   -43.6730   -11.2700 C.ar         1 FMN500   0.0000
    12 C7M         -4.1720   -43.9560    -9.8220 C.3          1 FMN500   0.0000
    13 C8          -3.7700   -44.3720   -12.2600 C.ar         1 FMN500   0.0000
    14 C8M         -2.7630   -45.4150   -11.8800 C.3          1 FMN500   0.0000
    15 C9          -4.0280   -44.1010   -13.6030 C.ar         1 FMN500   0.0000
    16 C9A         -4.9650   -43.1340   -13.9710 C.ar         1 FMN500   0.0000
    17 N10         -5.2340   -42.8700   -15.3060 N.pl3        1 FMN500   0.0000
    18 C10         -6.1560   -41.8950   -15.6460 C.2          1 FMN500   0.0000
    19 C1'         -4.5010   -43.5990   -16.3940 C.3          1 FMN500   0.0000
    20 C2'         -4.9910   -45.0190   -16.6610 C.3          1 FMN500   0.0000
    21 O2'         -5.0900   -45.7620   -15.4630 O.3          1 FMN500   0.0000
    22 C3'         -4.0090   -45.7140   -17.5990 C.3          1 FMN500   0.0000
    23 O3'         -2.7070   -45.6690   -17.0660 O.3          1 FMN500   0.0000
    24 C4'         -4.0210   -45.0430   -18.9620 C.3          1 FMN500   0.0000
    25 O4'         -5.2680   -45.2780   -19.5670 O.3          1 FMN500   0.0000
    26 C5'         -2.9110   -45.5480   -19.8760 C.3          1 FMN500   0.0000
    27 O5'         -2.8900   -46.9630   -19.8790 O.3          1 FMN500   0.0000
    28 P           -3.4370   -47.7910   -21.1520 P.3          1 FMN500   0.0000
    29 O1P         -4.9370   -47.6550   -21.1830 O.co2        1 FMN500   0.0000
    30 O2P         -3.0540   -49.2430   -21.0310 O.co2        1 FMN500  -1.0000
    31 O3P         -2.8700   -47.2270   -22.4310 O.co2        1 FMN500  -1.0000
    32 H1          -8.7054   -39.2557   -16.5439 H            1 FMN500   0.0000
    33 H2          -5.8659   -42.1999   -10.9232 H            1 FMN500   0.0000
    34 H7M1        -3.4796   -44.6736    -9.7474 H            1 FMN500   0.0000
    35 H7M2        -3.8396   -43.1246    -9.3768 H            1 FMN500   0.0000
    36 H7M3        -5.0148   -44.2584    -9.3768 H            1 FMN500   0.0000
    37 H8M1        -2.3730   -45.8189   -12.7075 H            1 FMN500   0.0000
    38 H8M2        -2.0347   -44.9939   -11.3394 H            1 FMN500   0.0000
    39 H8M3        -3.2095   -46.1281   -11.3395 H            1 FMN500   0.0000
    40 H9          -3.5354   -44.6059   -14.3118 H            1 FMN500   0.0000
    41 H1'1        -3.5351   -43.6467   -16.1394 H            1 FMN500   0.0000
    42 H1'2        -4.5974   -43.0734   -17.2392 H            1 FMN500   0.0000
    43 H2'         -5.8897   -44.9793   -17.0977 H            1 FMN500   0.0000
    44 H13         -5.4126   -46.6858   -15.6694 H            1 FMN500   0.0000
    45 H3'         -4.2831   -46.6698   -17.7055 H            1 FMN500   0.0000
    46 H15         -2.0751   -46.1277   -17.6907 H            1 FMN500   0.0000
    47 H4'         -3.9075   -44.0576   -18.8348 H            1 FMN500   0.0000
    48 H17         -5.2254   -46.1221   -20.1015 H            1 FMN500   0.0000
    49 H5'1        -2.0308   -45.2048   -19.5482 H            1 FMN500   0.0000
    50 H5'2        -3.0722   -45.2176   -20.8060 H            1 FMN500   0.0000
@<TRIPOS>BOND
     1    1    2       1
     2    1   18       2
     3    2    3       2
     4    2    4       1
     5    4    5       1
     6    5    6       2
     7    5    7       1
     8    7    8       2
     9    7   18       1
    10    8    9       1
    11    9   10      ar
    12    9   16      ar
    13   10   11      ar
    14   11   12       1
    15   11   13      ar
    16   13   14       1
    17   13   15      ar
    18   15   16      ar
    19   16   17       1
    20   17   18       1
    21   17   19       1
    22   19   20       1
    23   20   21       1
    24   20   22       1
    25   22   23       1
    26   22   24       1
    27   24   25       1
    28   24   26       1
    29   26   27       1
    30   27   28       1
    31   28   29      ar
    32   28   30      ar
    33   28   31      ar
    34    4   32       1
    35   10   33       1
    36   12   34       1
    37   12   35       1
    38   12   36       1
    39   14   37       1
    40   14   38       1
    41   14   39       1
    42   15   40       1
    43   19   41       1
    44   19   42       1
    45   20   43       1
    46   21   44       1
    47   22   45       1
    48   23   46       1
    49   24   47       1
    50   25   48       1
    51   26   49       1
    52   26   50       1
@<TRIPOS>SUBSTRUCTURE
     1 FMN500      1 GROUP             4 D     FMN     0 **** FMN D 500
