@<TRIPOS>MOLECULE
3peh_IBD_1_ligand
   57    59     1     0     0
SMALL
NO_CHARGES


@<TRIPOS>ATOM
     1 N1          45.5580    72.8870     9.5450 N.ar         1 IBD1001   0.0000
     2 C2          46.3680    71.9810    10.1500 C.ar         1 IBD1001   0.0000
     3 N3          47.7000    72.1080    10.1070 N.ar         1 IBD1001   0.0000
     4 C4          48.2490    73.1170     9.4240 C.ar         1 IBD1001   0.0000
     5 C5          47.4530    74.0620     8.7330 C.ar         1 IBD1001   0.0000
     6 C6          46.0570    73.9150     8.8180 C.ar         1 IBD1001   0.0000
     7 CAA         54.2940    75.5720     7.9550 C.3          1 IBD1001   0.0000
     8 CAB         44.6570    79.6660     3.5180 C.3          1 IBD1001   0.0000
     9 CAC         47.5660    76.9090     1.4600 C.3          1 IBD1001   0.0000
    10 NAD         45.8780    70.9910    10.8800 N.pl3        1 IBD1001   0.0000
    11 OAE         50.2690    76.4790     6.6220 O.2          1 IBD1001   0.0000
    12 CLAF        42.3370    78.0070     6.5530 Cl           1 IBD1001   0.0000
    13 CLAG        44.3120    75.4170    10.8040 Cl           1 IBD1001   0.0000
    14 CAH         43.4480    76.5580     8.5490 C.ar         1 IBD1001   0.0000
    15 CAI         45.1450    75.1210     6.8630 C.ar         1 IBD1001   0.0000
    16 CAJ         48.2000    74.9700     8.0590 C.2          1 IBD1001   0.0000
    17 CAK         53.0360    75.9170     7.1560 C.3          1 IBD1001   0.0000
    18 CAL         45.5590    78.9140     2.5370 C.3          1 IBD1001   0.0000
    19 CAM         47.3580    77.3120     2.9230 C.3          1 IBD1001   0.0000
    20 CAN         44.8710    75.6390     4.0200 C.3          1 IBD1001   0.0000
    21 CAO         45.0010    76.5690     2.8040 C.3          1 IBD1001   0.0000
    22 NAR         51.8510    75.3060     7.7750 N.am         1 IBD1001   0.0000
    23 OAS         44.1490    76.3940     5.0010 O.3          1 IBD1001   0.0000
    24 SAT         49.8660    73.4940     9.1610 S.3          1 IBD1001   0.0000
    25 CAU         50.5940    75.6440     7.4680 C.2          1 IBD1001   0.0000
    26 CAW         43.4390    76.8220     7.1860 C.ar         1 IBD1001   0.0000
    27 CAX         44.3260    75.6150     9.0840 C.ar         1 IBD1001   0.0000
    28 CAY         44.2780    76.1000     6.3330 C.ar         1 IBD1001   0.0000
    29 CAZ         49.5290    74.8360     8.2100 C.2          1 IBD1001   0.0000
    30 CBA         45.1730    74.8630     8.2480 C.ar         1 IBD1001   0.0000
    31 NBE         45.9440    77.6490     3.1640 N.4          1 IBD1001   1.0000
    32 HAA1        55.0903    75.9943     7.5218 H            1 IBD1001   0.0000
    33 HAA2        54.2006    75.9168     8.8890 H            1 IBD1001   0.0000
    34 HAA3        54.4135    74.5794     7.9764 H            1 IBD1001   0.0000
    35 HAB1        44.3782    80.5371     3.1138 H            1 IBD1001   0.0000
    36 HAB2        43.8460    79.1150     3.7146 H            1 IBD1001   0.0000
    37 HAB3        45.1574    79.8373     4.3667 H            1 IBD1001   0.0000
    38 HAC1        48.5285    76.6831     1.3101 H            1 IBD1001   0.0000
    39 HAC2        46.9999    76.1118     1.2501 H            1 IBD1001   0.0000
    40 HAC3        47.3053    77.6690     0.8646 H            1 IBD1001   0.0000
    41 HAD1        46.4967    70.3369    11.3151 H            1 IBD1001   0.0000
    42 HAD2        44.8892    70.8974    10.9962 H            1 IBD1001   0.0000
    43 HAH         42.8194    77.0482     9.1528 H            1 IBD1001   0.0000
    44 HAI         45.7446    74.6059     6.2505 H            1 IBD1001   0.0000
    45 HAJ         47.7930    75.6860     7.4918 H            1 IBD1001   0.0000
    46 HAK1        53.1342    75.5728     6.2222 H            1 IBD1001   0.0000
    47 HAK2        52.9214    76.9102     7.1348 H            1 IBD1001   0.0000
    48 HAL1        46.3745    79.4578     2.3392 H            1 IBD1001   0.0000
    49 HAL2        45.0632    78.7355     1.6871 H            1 IBD1001   0.0000
    50 HAM1        47.9268    78.1080     3.1301 H            1 IBD1001   0.0000
    51 HAM2        47.6214    76.5508     3.5156 H            1 IBD1001   0.0000
    52 HAN1        45.7748    75.3883     4.3670 H            1 IBD1001   0.0000
    53 HAN2        44.3666    74.8110     3.7749 H            1 IBD1001   0.0000
    54 HAO1        44.1085    76.9580     2.5756 H            1 IBD1001   0.0000
    55 HAO2        45.3522    76.0574     2.0198 H            1 IBD1001   0.0000
    56 HAR         51.9929    74.5967     8.4655 H            1 IBD1001   0.0000
    57 HBE         45.8519    77.7850     4.1504 H            1 IBD1001   0.0000
@<TRIPOS>BOND
     1    1    2      ar
     2    1    6      ar
     3    2    3      ar
     4    2   10       1
     5    3    4      ar
     6    4    5      ar
     7    4   24       1
     8    5    6      ar
     9    5   16       1
    10    6   30       1
    11    7   17       1
    12    8   18       1
    13    9   19       1
    14   11   25       2
    15   12   26       1
    16   13   27       1
    17   14   26      ar
    18   14   27      ar
    19   15   28      ar
    20   15   30      ar
    21   16   29       2
    22   17   22       1
    23   18   31       1
    24   19   31       1
    25   20   21       1
    26   20   23       1
    27   21   31       1
    28   22   25      am
    29   23   28       1
    30   24   29       1
    31   25   29       1
    32   26   28      ar
    33   27   30      ar
    34    7   32       1
    35    7   33       1
    36    7   34       1
    37    8   35       1
    38    8   36       1
    39    8   37       1
    40    9   38       1
    41    9   39       1
    42    9   40       1
    43   10   41       1
    44   10   42       1
    45   14   43       1
    46   15   44       1
    47   16   45       1
    48   17   46       1
    49   17   47       1
    50   18   48       1
    51   18   49       1
    52   19   50       1
    53   19   51       1
    54   20   52       1
    55   20   53       1
    56   21   54       1
    57   21   55       1
    58   22   56       1
    59   31   57       1
@<TRIPOS>SUBSTRUCTURE
     1 IBD1001     1 GROUP             4 A     IBD     0 **** IBD A1001
