@<TRIPOS>MOLECULE
3u9d_ATP_2_ligand
   43    45     1     0     0
SMALL
NO_CHARGES


@<TRIPOS>ATOM
     1 PG         -12.7310   -32.2630   -52.3220 P.3          1 ATP501   0.0000
     2 O1G        -13.0730   -30.9840   -51.5690 O.co2        1 ATP501   0.0000
     3 O2G        -13.4990   -32.4940   -53.6280 O.co2        1 ATP501  -1.0000
     4 O3G        -11.2400   -32.5420   -52.3970 O.co2        1 ATP501  -1.0000
     5 PB         -12.2040   -34.1570   -50.4890 P.3          1 ATP501   0.0000
     6 O1B        -10.8930   -33.4110   -50.6990 O.co2        1 ATP501   0.0000
     7 O2B        -12.7390   -34.4900   -49.1350 O.co2        1 ATP501  -1.0000
     8 O3B        -13.3270   -33.3960   -51.3440 O.3          1 ATP501   0.0000
     9 PA         -11.2790   -36.6430   -50.7180 P.3          1 ATP501   0.0000
    10 O1A         -9.8980   -36.6430   -51.2930 O.co2        1 ATP501   0.0000
    11 O2A        -11.6570   -36.3030   -49.3060 O.co2        1 ATP501  -1.0000
    12 O3A        -12.0950   -35.4860   -51.3830 O.3          1 ATP501   0.0000
    13 O5'        -11.9840   -38.0280   -51.1050 O.3          1 ATP501   0.0000
    14 C5'        -12.3560   -38.9310   -50.0930 C.3          1 ATP501   0.0000
    15 C4'        -13.0340   -40.1000   -50.7680 C.3          1 ATP501   0.0000
    16 O4'        -12.1020   -40.9320   -51.4960 O.3          1 ATP501   0.0000
    17 C3'        -13.6180   -40.9580   -49.6740 C.3          1 ATP501   0.0000
    18 O3'        -15.0060   -41.1670   -49.9200 O.3          1 ATP501   0.0000
    19 C2'        -12.9320   -42.2930   -49.7910 C.3          1 ATP501   0.0000
    20 O2'        -13.9840   -43.2120   -49.5460 O.3          1 ATP501   0.0000
    21 C1'        -12.4090   -42.3120   -51.2290 C.3          1 ATP501   0.0000
    22 N9         -11.2930   -43.2820   -51.4390 N.pl3        1 ATP501   0.0000
    23 C8         -10.1030   -43.2900   -50.8180 C.2          1 ATP501   0.0000
    24 N7          -9.3200   -44.3300   -51.2320 N.2          1 ATP501   0.0000
    25 C5         -10.0270   -45.0360   -52.1480 C.ar         1 ATP501   0.0000
    26 C6          -9.8180   -46.2640   -52.9810 C.ar         1 ATP501   0.0000
    27 N6          -8.6680   -46.9930   -52.9600 N.pl3        1 ATP501   0.0000
    28 N1         -10.8340   -46.6420   -53.7940 N.ar         1 ATP501   0.0000
    29 C2         -11.9880   -45.9400   -53.8550 C.ar         1 ATP501   0.0000
    30 N3         -12.2290   -44.8440   -53.1210 N.ar         1 ATP501   0.0000
    31 C4         -11.3190   -44.3360   -52.2700 C.ar         1 ATP501   0.0000
    32 H5'1       -12.9872   -38.4901   -49.4549 H            1 ATP501   0.0000
    33 H5'2       -11.5456   -39.2438   -49.5976 H            1 ATP501   0.0000
    34 H4'        -13.7577   -39.7758   -51.3773 H            1 ATP501   0.0000
    35 H3'        -13.4667   -40.5502   -48.7735 H            1 ATP501   0.0000
    36 H5         -15.2808   -42.0534   -49.5475 H            1 ATP501   0.0000
    37 H2'        -12.1919   -42.3898   -49.1254 H            1 ATP501   0.0000
    38 H7         -13.6125   -44.0394   -49.1249 H            1 ATP501   0.0000
    39 H1'        -13.1647   -42.5795   -51.8269 H            1 ATP501   0.0000
    40 H9          -9.8233   -42.6157   -50.1345 H            1 ATP501   0.0000
    41 H10         -8.5804   -47.8054   -53.5365 H            1 ATP501   0.0000
    42 H11         -7.9111   -46.7160   -52.3681 H            1 ATP501   0.0000
    43 H12        -12.7006   -46.2554   -54.4817 H            1 ATP501   0.0000
@<TRIPOS>BOND
     1    1    2      ar
     2    1    3      ar
     3    1    4      ar
     4    1    8       1
     5    5    6      ar
     6    5    7      ar
     7    5    8       1
     8    5   12       1
     9    9   10      ar
    10    9   11      ar
    11    9   12       1
    12    9   13       1
    13   13   14       1
    14   14   15       1
    15   15   16       1
    16   15   17       1
    17   16   21       1
    18   17   18       1
    19   17   19       1
    20   19   20       1
    21   19   21       1
    22   21   22       1
    23   22   23       1
    24   22   31       1
    25   23   24       2
    26   24   25       1
    27   25   26      ar
    28   25   31      ar
    29   26   27       1
    30   26   28      ar
    31   28   29      ar
    32   29   30      ar
    33   30   31      ar
    34   29   43       1
    35   27   42       1
    36   27   41       1
    37   23   40       1
    38   14   32       1
    39   14   33       1
    40   15   34       1
    41   17   35       1
    42   18   36       1
    43   19   37       1
    44   20   38       1
    45   21   39       1
@<TRIPOS>SUBSTRUCTURE
     1 ATP501      1 GROUP             4 C     ATP     0 **** ATP C 501
