@<TRIPOS>MOLECULE
3dsr_ADP_1_ligand
   39    41     1     0     0
SMALL
NO_CHARGES


@<TRIPOS>ATOM
     1 PB         -28.3750   -15.7280    28.4310 P.3          1 ADP461   0.0000
     2 O1B        -29.5490   -16.2980    29.2050 O.co2        1 ADP461   0.0000
     3 O2B        -27.0190   -16.2870    28.8170 O.co2        1 ADP461  -1.0000
     4 O3B        -28.5970   -15.6550    26.9400 O.co2        1 ADP461  -1.0000
     5 PA         -29.0620   -13.0260    28.1070 P.3          1 ADP461   0.0000
     6 O1A        -30.4100   -13.5410    27.6530 O.co2        1 ADP461   0.0000
     7 O2A        -28.9810   -11.7490    28.9140 O.co2        1 ADP461  -1.0000
     8 O3A        -28.3170   -14.1930    28.9290 O.3          1 ADP461   0.0000
     9 O5'        -28.0980   -12.8990    26.8270 O.3          1 ADP461   0.0000
    10 C5'        -28.3110   -11.8700    25.8730 C.3          1 ADP461   0.0000
    11 C4'        -27.4820   -10.6790    26.3060 C.3          1 ADP461   0.0000
    12 O4'        -26.3530   -10.5030    25.4520 O.3          1 ADP461   0.0000
    13 C3'        -28.2960    -9.4030    26.2480 C.3          1 ADP461   0.0000
    14 O3'        -28.5410    -8.9500    27.5820 O.3          1 ADP461   0.0000
    15 C2'        -27.4190    -8.4190    25.5020 C.3          1 ADP461   0.0000
    16 O2'        -27.1830    -7.2270    26.2510 O.3          1 ADP461   0.0000
    17 C1'        -26.0840    -9.1050    25.3480 C.3          1 ADP461   0.0000
    18 N9         -25.5020    -8.7110    24.0510 N.pl3        1 ADP461   0.0000
    19 C8         -25.0480    -7.4840    23.7690 C.2          1 ADP461   0.0000
    20 N7         -24.5700    -7.4360    22.5040 N.2          1 ADP461   0.0000
    21 C5         -24.7220    -8.6460    21.9580 C.ar         1 ADP461   0.0000
    22 C6         -24.4320    -9.2670    20.6530 C.ar         1 ADP461   0.0000
    23 N6         -23.8640    -8.5520    19.6640 N.pl3        1 ADP461   0.0000
    24 N1         -24.7520   -10.5630    20.4790 N.ar         1 ADP461   0.0000
    25 C2         -25.3180   -11.2750    21.4660 C.ar         1 ADP461   0.0000
    26 N3         -25.6120   -10.7750    22.6770 N.ar         1 ADP461   0.0000
    27 C4         -25.3430    -9.4870    22.9820 C.ar         1 ADP461   0.0000
    28 H5'1       -29.2794   -11.6221    25.8470 H            1 ADP461   0.0000
    29 H5'2       -28.0213   -12.1778    24.9667 H            1 ADP461   0.0000
    30 H4'        -27.1649   -10.8234    27.2433 H            1 ADP461   0.0000
    31 H3'        -29.1561    -9.5525    25.7603 H            1 ADP461   0.0000
    32 H5         -28.5797    -9.7359    28.1991 H            1 ADP461   0.0000
    33 H2'        -27.8110    -8.2031    24.6077 H            1 ADP461   0.0000
    34 H7         -27.6540    -7.2875    27.1310 H            1 ADP461   0.0000
    35 H1'        -25.4743    -8.8240    26.0892 H            1 ADP461   0.0000
    36 H9         -25.0603    -6.7114    24.4038 H            1 ADP461   0.0000
    37 H10        -23.6715    -8.9830    18.7824 H            1 ADP461   0.0000
    38 H11        -23.6346    -7.5898    19.8108 H            1 ADP461   0.0000
    39 H12        -25.5336   -12.2353    21.2889 H            1 ADP461   0.0000
@<TRIPOS>BOND
     1    1    2      ar
     2    1    3      ar
     3    1    4      ar
     4    1    8       1
     5    5    6      ar
     6    5    7      ar
     7    5    8       1
     8    5    9       1
     9    9   10       1
    10   10   11       1
    11   11   12       1
    12   11   13       1
    13   12   17       1
    14   13   14       1
    15   13   15       1
    16   15   16       1
    17   15   17       1
    18   17   18       1
    19   18   19       1
    20   18   27       1
    21   19   20       2
    22   20   21       1
    23   21   22      ar
    24   21   27      ar
    25   22   23       1
    26   22   24      ar
    27   24   25      ar
    28   25   26      ar
    29   26   27      ar
    30   25   39       1
    31   23   38       1
    32   23   37       1
    33   10   28       1
    34   10   29       1
    35   11   30       1
    36   13   31       1
    37   14   32       1
    38   15   33       1
    39   16   34       1
    40   17   35       1
    41   19   36       1
@<TRIPOS>SUBSTRUCTURE
     1 ADP461      1 GROUP             4 A     ADP     0 **** ADP A 461
