@<TRIPOS>MOLECULE
2qjp_ANJ_6_ligand
   79    80     1     0     0
SMALL
NO_CHARGES


@<TRIPOS>ATOM
     1 O1          74.6460    31.4790    40.7070 O.2          1 ANJ505   0.0000
     2 O2          74.3850    26.7890    39.1040 O.3          1 ANJ505   0.0000
     3 O3          75.2200    26.0820    35.0450 O.2          1 ANJ505   0.0000
     4 O4          75.8230    21.5470    36.6030 O.3          1 ANJ505   0.0000
     5 O5          76.3720    21.6160    34.2980 O.2          1 ANJ505   0.0000
     6 O6          73.7040    21.8530    36.0240 O.3          1 ANJ505   0.0000
     7 O7          72.5440    23.3300    37.3320 O.2          1 ANJ505   0.0000
     8 O8          72.9590    18.5240    34.9330 O.3          1 ANJ505   0.0000
     9 O9          71.9360    18.8120    32.9570 O.2          1 ANJ505   0.0000
    10 N1          74.4390    29.2220    40.2300 N.am         1 ANJ505   0.0000
    11 N2          74.6890    25.1110    36.9930 N.am         1 ANJ505   0.0000
    12 C1          74.4250    30.3460    41.0190 C.2          1 ANJ505   0.0000
    13 C2          74.7150    29.1120    38.7940 C.ar         1 ANJ505   0.0000
    14 C3          75.0150    30.2230    37.9970 C.ar         1 ANJ505   0.0000
    15 C4          75.2820    30.0200    36.5960 C.ar         1 ANJ505   0.0000
    16 C5          75.2540    28.7580    36.0710 C.ar         1 ANJ505   0.0000
    17 C6          74.9490    27.5710    36.8570 C.ar         1 ANJ505   0.0000
    18 C7          74.6820    27.8000    38.2400 C.ar         1 ANJ505   0.0000
    19 C8          74.9510    26.2330    36.2670 C.2          1 ANJ505   0.0000
    20 C9          74.7680    23.7960    36.3810 C.3          1 ANJ505   0.0000
    21 C10         76.1140    23.0160    36.8160 C.3          1 ANJ505   0.0000
    22 C11         76.4930    23.1400    38.2390 C.3          1 ANJ505   0.0000
    23 C12         75.8410    21.0480    35.2680 C.2          1 ANJ505   0.0000
    24 C13         75.0880    19.7030    35.1500 C.3          1 ANJ505   0.0000
    25 C14         73.5430    19.8870    34.9660 C.3          1 ANJ505   0.0000
    26 C15         72.9840    20.6010    36.2200 C.3          1 ANJ505   0.0000
    27 C16         71.5000    20.8300    36.1090 C.3          1 ANJ505   0.0000
    28 C17         73.4750    22.9990    36.6820 C.2          1 ANJ505   0.0000
    29 C18         75.7230    18.9450    33.9530 C.3          1 ANJ505   0.0000
    30 C19         77.0620    18.3460    34.3000 C.3          1 ANJ505   0.0000
    31 C20         77.6610    17.7120    33.0110 C.3          1 ANJ505   0.0000
    32 C21         78.9820    16.9890    33.2180 C.3          1 ANJ505   0.0000
    33 C22         79.3920    16.4130    31.7850 C.3          1 ANJ505   0.0000
    34 C23         80.6470    15.5760    31.8730 C.3          1 ANJ505   0.0000
    35 C24         72.1880    18.1360    33.8850 C.2          1 ANJ505   0.0000
    36 C25         71.6740    16.6890    34.0850 C.3          1 ANJ505   0.0000
    37 C26         70.7350    16.7390    35.3880 C.3          1 ANJ505   0.0000
    38 C27         70.9490    16.1520    32.8860 C.3          1 ANJ505   0.0000
    39 C28         71.9370    15.4890    31.9890 C.3          1 ANJ505   0.0000
    40 H1          74.2054    26.9907    40.0668 H            1 ANJ505   0.0000
    41 H2          74.2332    28.3625    40.6979 H            1 ANJ505   0.0000
    42 H3          74.4395    25.1933    37.9579 H            1 ANJ505   0.0000
    43 H4          74.2002    30.1972    41.9820 H            1 ANJ505   0.0000
    44 H5          75.0435    31.1408    38.3929 H            1 ANJ505   0.0000
    45 H6          75.4878    30.8020    36.0076 H            1 ANJ505   0.0000
    46 H7          75.4531    28.6444    35.0976 H            1 ANJ505   0.0000
    47 H8          74.8099    23.9312    35.3911 H            1 ANJ505   0.0000
    48 H9          76.8760    23.3004    36.2342 H            1 ANJ505   0.0000
    49 H10         76.6998    24.0961    38.4468 H            1 ANJ505   0.0000
    50 H11         75.7357    22.8303    38.8139 H            1 ANJ505   0.0000
    51 H12         77.3000    22.5776    38.4193 H            1 ANJ505   0.0000
    52 H13         75.2487    19.1740    35.9833 H            1 ANJ505   0.0000
    53 H14         73.3321    20.3955    34.1312 H            1 ANJ505   0.0000
    54 H15         73.2390    20.1402    37.0701 H            1 ANJ505   0.0000
    55 H16         71.0180    19.9645    36.2452 H            1 ANJ505   0.0000
    56 H17         71.2109    21.4859    36.8063 H            1 ANJ505   0.0000
    57 H18         71.2855    21.1918    35.2017 H            1 ANJ505   0.0000
    58 H19         75.8441    19.5855    33.1947 H            1 ANJ505   0.0000
    59 H20         75.1049    18.2103    33.6733 H            1 ANJ505   0.0000
    60 H21         76.9464    17.6422    35.0010 H            1 ANJ505   0.0000
    61 H22         77.6736    19.0596    34.6417 H            1 ANJ505   0.0000
    62 H23         77.8059    18.4416    32.3426 H            1 ANJ505   0.0000
    63 H24         76.9991    17.0554    32.6495 H            1 ANJ505   0.0000
    64 H25         78.8715    16.2429    33.8746 H            1 ANJ505   0.0000
    65 H26         79.6787    17.6249    33.5501 H            1 ANJ505   0.0000
    66 H27         79.5522    17.1768    31.1598 H            1 ANJ505   0.0000
    67 H28         78.6458    15.8467    31.4351 H            1 ANJ505   0.0000
    68 H29         80.8805    15.2289    30.9647 H            1 ANJ505   0.0000
    69 H30         81.3987    16.1377    32.2186 H            1 ANJ505   0.0000
    70 H31         80.4923    14.8075    32.4939 H            1 ANJ505   0.0000
    71 H32         72.4559    16.0961    34.2774 H            1 ANJ505   0.0000
    72 H33         70.3695    15.8263    35.5707 H            1 ANJ505   0.0000
    73 H34         71.2714    17.0467    36.1738 H            1 ANJ505   0.0000
    74 H35         69.9797    17.3751    35.2304 H            1 ANJ505   0.0000
    75 H36         70.5023    16.9023    32.3987 H            1 ANJ505   0.0000
    76 H37         70.2609    15.4879    33.1782 H            1 ANJ505   0.0000
    77 H38         71.4662    15.1262    31.1848 H            1 ANJ505   0.0000
    78 H39         72.6247    16.1552    31.7003 H            1 ANJ505   0.0000
    79 H40         72.3832    14.7407    32.4798 H            1 ANJ505   0.0000
@<TRIPOS>BOND
     1    1   12       2
     2    2   18       1
     3    3   19       2
     4    4   21       1
     5    4   23       1
     6    5   23       2
     7    6   26       1
     8    6   28       1
     9    7   28       2
    10    8   25       1
    11    8   35       1
    12    9   35       2
    13   10   12      am
    14   10   13       1
    15   11   19      am
    16   11   20       1
    17   13   14      ar
    18   13   18      ar
    19   14   15      ar
    20   15   16      ar
    21   16   17      ar
    22   17   18      ar
    23   17   19       1
    24   20   21       1
    25   20   28       1
    26   21   22       1
    27   23   24       1
    28   24   25       1
    29   24   29       1
    30   25   26       1
    31   26   27       1
    32   29   30       1
    33   30   31       1
    34   31   32       1
    35   32   33       1
    36   33   34       1
    37   35   36       1
    38   36   37       1
    39   36   38       1
    40   38   39       1
    41    2   40       1
    42   10   41       1
    43   11   42       1
    44   12   43       1
    45   14   44       1
    46   15   45       1
    47   16   46       1
    48   20   47       1
    49   21   48       1
    50   22   49       1
    51   22   50       1
    52   22   51       1
    53   24   52       1
    54   25   53       1
    55   26   54       1
    56   27   55       1
    57   27   56       1
    58   27   57       1
    59   29   58       1
    60   29   59       1
    61   30   60       1
    62   30   61       1
    63   31   62       1
    64   31   63       1
    65   32   64       1
    66   32   65       1
    67   33   66       1
    68   33   67       1
    69   34   68       1
    70   34   69       1
    71   34   70       1
    72   36   71       1
    73   37   72       1
    74   37   73       1
    75   37   74       1
    76   38   75       1
    77   38   76       1
    78   39   77       1
    79   39   78       1
    80   39   79       1
@<TRIPOS>SUBSTRUCTURE
     1 ANJ505      1 GROUP             4 G     ANJ     0 **** ANJ G 505
