@<TRIPOS>MOLECULE
4feq_0T8_1_ligand
   66    69     1     0     0
SMALL
NO_CHARGES


@<TRIPOS>ATOM
     1 N1           8.7970   -10.5110    15.1260 N.ar         1 0T8901   0.0000
     2 N3          10.7970   -11.4130    14.3210 N.ar         1 0T8901   0.0000
     3 C4           9.0110   -14.1410    16.1580 C.2          1 0T8901   0.0000
     4 C5           9.9580   -10.3630    14.4460 C.ar         1 0T8901   0.0000
     5 C6           6.3190   -10.6840    16.2460 C.3          1 0T8901   0.0000
     6 C7           4.9120   -11.2080    15.9910 C.3          1 0T8901   0.0000
     7 C8           6.2640    -9.9300    17.5610 C.3          1 0T8901   0.0000
     8 C10          9.7480    -7.9190    14.4580 C.3          1 0T8901   0.0000
     9 C13          9.6320   -16.4100    18.3200 C.3          1 0T8901   0.0000
    10 C15          9.2990   -17.8700    18.6580 C.3          1 0T8901   0.0000
    11 C20          9.9370   -19.5080    20.3960 C.2          1 0T8901   0.0000
    12 C21         10.5110   -17.2360    20.7870 C.3          1 0T8901   0.0000
    13 C22          6.7190    -4.1480    14.3590 C.ar         1 0T8901   0.0000
    14 C24         10.5070   -19.5720    21.7990 C.3          1 0T8901   0.0000
    15 C26         11.0320   -18.0580    22.0480 C.3          1 0T8901   0.0000
    16 O25          9.5430   -20.5120    19.8020 O.2          1 0T8901   0.0000
    17 N6           9.9080   -18.2600    19.9390 N.am         1 0T8901   0.0000
    18 C9          10.1110   -16.3360    16.8790 C.3          1 0T8901   0.0000
    19 N4          10.0460   -14.9700    16.3700 N.am         1 0T8901   0.0000
    20 O1           7.8570   -14.4400    16.4350 O.2          1 0T8901   0.0000
    21 C2           9.3090   -12.7850    15.5710 C.ar         1 0T8901   0.0000
    22 C1           8.4480   -11.6940    15.6930 C.ar         1 0T8901   0.0000
    23 N2           7.2760   -11.7760    16.3530 N.pl3        1 0T8901   0.0000
    24 C12          5.0630   -10.4700    18.3230 C.3          1 0T8901   0.0000
    25 C11          4.1390   -11.1120    17.2980 C.3          1 0T8901   0.0000
    26 C3          10.4900   -12.6030    14.8570 C.ar         1 0T8901   0.0000
    27 N5          10.2880    -9.1690    13.9110 N.pl3        1 0T8901   0.0000
    28 C14          8.6330    -7.3560    13.5780 C.3          1 0T8901   0.0000
    29 C16          7.7060    -6.3600    14.2680 C.ar         1 0T8901   0.0000
    30 C19          6.9420    -6.7120    15.3800 C.ar         1 0T8901   0.0000
    31 C23          6.0970    -5.7610    15.9520 C.ar         1 0T8901   0.0000
    32 N7           6.0060    -4.5230    15.4340 N.ar         1 0T8901   0.0000
    33 C18          7.5750    -5.0680    13.7550 C.ar         1 0T8901   0.0000
    34 H1           6.5903   -10.0645    15.5094 H            1 0T8901   0.0000
    35 H2           4.9528   -12.1603    15.6885 H            1 0T8901   0.0000
    36 H3           4.4643   -10.6542    15.2890 H            1 0T8901   0.0000
    37 H4           6.1536    -8.9505    17.3925 H            1 0T8901   0.0000
    38 H5           7.1024   -10.0860    18.0833 H            1 0T8901   0.0000
    39 H6          10.4851    -7.2459    14.5183 H            1 0T8901   0.0000
    40 H7           9.3824    -8.0958    15.3718 H            1 0T8901   0.0000
    41 H8          10.3518   -16.0797    18.9306 H            1 0T8901   0.0000
    42 H9           8.8148   -15.8446    18.4317 H            1 0T8901   0.0000
    43 H10          9.6506   -18.4629    17.9335 H            1 0T8901   0.0000
    44 H11          8.3064   -17.9739    18.7214 H            1 0T8901   0.0000
    45 H12         11.2690   -16.7835    20.3172 H            1 0T8901   0.0000
    46 H13          9.8332   -16.5535    21.0603 H            1 0T8901   0.0000
    47 H14          6.6368    -3.2198    13.9962 H            1 0T8901   0.0000
    48 H15         11.2608   -20.2271    21.8513 H            1 0T8901   0.0000
    49 H16          9.8018   -19.8217    22.4625 H            1 0T8901   0.0000
    50 H17         10.6488   -17.6866    22.8937 H            1 0T8901   0.0000
    51 H18         12.0306   -18.0346    22.0960 H            1 0T8901   0.0000
    52 H19          9.5325   -16.9229    16.3126 H            1 0T8901   0.0000
    53 H20         11.0572   -16.6564    16.8331 H            1 0T8901   0.0000
    54 H21         10.9362   -14.5792    16.1359 H            1 0T8901   0.0000
    55 H22          7.0657   -12.5789    16.9107 H            1 0T8901   0.0000
    56 H23          4.5902    -9.7242    18.7923 H            1 0T8901   0.0000
    57 H24          5.3589   -11.1509    18.9929 H            1 0T8901   0.0000
    58 H25          3.8696   -12.0250    17.6043 H            1 0T8901   0.0000
    59 H26          3.3227   -10.5482    17.1724 H            1 0T8901   0.0000
    60 H27         11.1192   -13.3717    14.7421 H            1 0T8901   0.0000
    61 H28         10.9106    -9.1354    13.1292 H            1 0T8901   0.0000
    62 H29          8.0782    -8.1218    13.2528 H            1 0T8901   0.0000
    63 H30          9.0564    -6.8960    12.7975 H            1 0T8901   0.0000
    64 H31          6.9991    -7.6342    15.7624 H            1 0T8901   0.0000
    65 H32          5.5531    -6.0022    16.7557 H            1 0T8901   0.0000
    66 H33          8.0999    -4.8001    12.9471 H            1 0T8901   0.0000
@<TRIPOS>BOND
     1    1    4      ar
     2    1   22      ar
     3    2    4      ar
     4    2   26      ar
     5    3   19      am
     6    3   20       2
     7    3   21       1
     8    4   27       1
     9    5    6       1
    10    5    7       1
    11    5   23       1
    12    6   25       1
    13    7   24       1
    14    8   27       1
    15    8   28       1
    16    9   10       1
    17    9   18       1
    18   10   17       1
    19   11   14       1
    20   11   16       2
    21   11   17      am
    22   12   15       1
    23   12   17       1
    24   13   32      ar
    25   13   33      ar
    26   14   15       1
    27   18   19       1
    28   21   22      ar
    29   21   26      ar
    30   22   23       1
    31   24   25       1
    32   28   29       1
    33   29   30      ar
    34   29   33      ar
    35   30   31      ar
    36   31   32      ar
    37    5   34       1
    38    6   35       1
    39    6   36       1
    40    7   37       1
    41    7   38       1
    42    8   39       1
    43    8   40       1
    44    9   41       1
    45    9   42       1
    46   10   43       1
    47   10   44       1
    48   12   45       1
    49   12   46       1
    50   13   47       1
    51   14   48       1
    52   14   49       1
    53   15   50       1
    54   15   51       1
    55   18   52       1
    56   18   53       1
    57   19   54       1
    58   23   55       1
    59   24   56       1
    60   24   57       1
    61   25   58       1
    62   25   59       1
    63   26   60       1
    64   27   61       1
    65   28   62       1
    66   28   63       1
    67   30   64       1
    68   31   65       1
    69   33   66       1
@<TRIPOS>SUBSTRUCTURE
     1 0T8901      1 GROUP             4 A     0T8     0 **** 0T8 A 901
