@<TRIPOS>MOLECULE
4e2x_SAH_2_ligand
   46    48     1     0     0
SMALL
NO_CHARGES


@<TRIPOS>ATOM
     1 N          -26.8340    20.8390    -3.5770 N.4          1 SAH506   1.0000
     2 CA         -26.6130    19.3960    -3.2910 C.3          1 SAH506   0.0000
     3 CB         -25.6160    18.7040    -4.2120 C.3          1 SAH506   0.0000
     4 CG         -24.1440    18.9110    -3.8510 C.3          1 SAH506   0.0000
     5 SD         -23.1570    17.9330    -4.9590 S.3          1 SAH506   0.0000
     6 C          -26.3020    19.3030    -1.8320 C.2          1 SAH506   0.0000
     7 O          -26.3760    18.1780    -1.3560 O.co2        1 SAH506   0.0000
     8 OXT        -25.9380    20.2620    -1.1370 O.co2        1 SAH506  -1.0000
     9 C5'        -22.5980    19.0740    -6.1990 C.3          1 SAH506   0.0000
    10 C4'        -23.4730    19.0460    -7.4550 C.3          1 SAH506   0.0000
    11 O4'        -23.0580    20.1880    -8.2200 O.3          1 SAH506   0.0000
    12 C3'        -23.3960    17.7260    -8.2490 C.3          1 SAH506   0.0000
    13 O3'        -24.7660    17.3020    -8.3400 O.3          1 SAH506   0.0000
    14 C2'        -22.8750    18.2820    -9.5680 C.3          1 SAH506   0.0000
    15 O2'        -23.2590    17.5770   -10.7580 O.3          1 SAH506   0.0000
    16 C1'        -23.3490    19.7270    -9.5590 C.3          1 SAH506   0.0000
    17 N9         -22.4830    20.6130   -10.3430 N.pl3        1 SAH506   0.0000
    18 C8         -21.1540    20.5940   -10.5290 C.2          1 SAH506   0.0000
    19 N7         -20.6690    21.6090   -11.3060 N.2          1 SAH506   0.0000
    20 C5         -21.7710    22.3900   -11.5500 C.ar         1 SAH506   0.0000
    21 C6         -22.0670    23.6360   -12.2750 C.ar         1 SAH506   0.0000
    22 N6         -21.0980    24.3330   -12.9120 N.pl3        1 SAH506   0.0000
    23 N1         -23.3650    24.0030   -12.2870 N.ar         1 SAH506   0.0000
    24 C2         -24.3800    23.3480   -11.6720 C.ar         1 SAH506   0.0000
    25 N3         -24.2300    22.1880   -11.0000 N.ar         1 SAH506   0.0000
    26 C4         -22.9470    21.7370   -10.9360 C.ar         1 SAH506   0.0000
    27 H1         -27.4988    21.2094    -2.9283 H            1 SAH506   0.0000
    28 H2         -25.9692    21.3330    -3.4867 H            1 SAH506   0.0000
    29 HA         -27.4923    18.9393    -3.4260 H            1 SAH506   0.0000
    30 HB1        -25.7589    19.0507    -5.1390 H            1 SAH506   0.0000
    31 HB2        -25.8047    17.7222    -4.1905 H            1 SAH506   0.0000
    32 HG1        -23.9827    18.6203    -2.9079 H            1 SAH506   0.0000
    33 HG2        -23.9045    19.8771    -3.9476 H            1 SAH506   0.0000
    34 H5'1       -21.6610    18.8364    -6.4550 H            1 SAH506   0.0000
    35 H5'2       -22.6149    19.9978    -5.8164 H            1 SAH506   0.0000
    36 H4'        -24.4229    19.1866    -7.1760 H            1 SAH506   0.0000
    37 H3'        -22.7924    17.0444    -7.8353 H            1 SAH506   0.0000
    38 H12        -25.3000    18.0002    -8.8168 H            1 SAH506   0.0000
    39 H2'        -21.8760    18.2874    -9.5245 H            1 SAH506   0.0000
    40 H14        -24.2558    17.5755   -10.8375 H            1 SAH506   0.0000
    41 H1'        -24.3155    19.8189    -9.7986 H            1 SAH506   0.0000
    42 H16        -20.5642    19.8918   -10.1302 H            1 SAH506   0.0000
    43 H17        -21.3261    25.1770   -13.3975 H            1 SAH506   0.0000
    44 H18        -20.1537    24.0042   -12.8974 H            1 SAH506   0.0000
    45 H19        -25.2949    23.7488   -11.7193 H            1 SAH506   0.0000
    46 H20        -27.1825    20.9447    -4.5083 H            1 SAH506   0.0000
@<TRIPOS>BOND
     1    1    2       1
     2    2    3       1
     3    2    6       1
     4    3    4       1
     5    4    5       1
     6    5    9       1
     7    6    7      ar
     8    6    8      ar
     9    9   10       1
    10   10   11       1
    11   10   12       1
    12   11   16       1
    13   12   13       1
    14   12   14       1
    15   14   15       1
    16   14   16       1
    17   16   17       1
    18   17   18       1
    19   17   26       1
    20   18   19       2
    21   19   20       1
    22   20   21      ar
    23   20   26      ar
    24   21   22       1
    25   21   23      ar
    26   23   24      ar
    27   24   25      ar
    28   25   26      ar
    29    1   27       1
    30    1   28       1
    31    2   29       1
    32    3   30       1
    33    3   31       1
    34    4   32       1
    35    4   33       1
    36    1   46       1
    37    9   34       1
    38    9   35       1
    39   10   36       1
    40   12   37       1
    41   13   38       1
    42   14   39       1
    43   15   40       1
    44   16   41       1
    45   18   42       1
    46   22   43       1
    47   22   44       1
    48   24   45       1
@<TRIPOS>SUBSTRUCTURE
     1 SAH506      1 GROUP             4 A     SAH     0 **** SAH A 506
