@<TRIPOS>MOLECULE
4ohf_5GP_2_ligand
   36    38     1     0     0
SMALL
NO_CHARGES


@<TRIPOS>ATOM
     1 P            3.4050    48.6100    12.5540 P.3          1 5GP501   0.0000
     2 O1P          2.5790    49.4730    11.6560 O.co2        1 5GP501   0.0000
     3 O2P          3.3970    49.0940    13.9860 O.co2        1 5GP501  -1.0000
     4 O3P          4.8430    48.4860    12.0650 O.co2        1 5GP501  -1.0000
     5 O5'          2.8450    47.0910    12.5130 O.3          1 5GP501   0.0000
     6 C5'          1.5030    46.6990    12.8890 C.3          1 5GP501   0.0000
     7 C4'          1.5510    45.7810    14.1100 C.3          1 5GP501   0.0000
     8 O4'          2.1630    46.3110    15.2830 O.3          1 5GP501   0.0000
     9 C3'          0.2170    45.2390    14.6730 C.3          1 5GP501   0.0000
    10 O3'         -0.5390    44.4090    13.7300 O.3          1 5GP501   0.0000
    11 C2'          0.7380    44.4800    15.8820 C.3          1 5GP501   0.0000
    12 O2'          0.8710    43.0570    15.5180 O.3          1 5GP501   0.0000
    13 C1'          2.0870    45.1770    16.1950 C.3          1 5GP501   0.0000
    14 N9           2.2560    45.6450    17.6570 N.pl3        1 5GP501   0.0000
    15 C8           2.3390    44.8860    18.7720 C.2          1 5GP501   0.0000
    16 N7           2.4990    45.6500    19.8900 N.2          1 5GP501   0.0000
    17 C5           2.5230    46.9410    19.4640 C.2          1 5GP501   0.0000
    18 C6           2.6600    48.2020    20.1050 C.2          1 5GP501   0.0000
    19 O6           2.8080    48.2480    21.3490 O.2          1 5GP501   0.0000
    20 N1           2.6400    49.3580    19.3470 N.2          1 5GP501   0.0000
    21 C2           2.4850    49.3250    18.0020 C.2          1 5GP501   0.0000
    22 N2           2.4670    50.4770    17.2880 N.pl3        1 5GP501   0.0000
    23 N3           2.3470    48.1090    17.3380 N.pl3        1 5GP501   0.0000
    24 C4           2.3620    46.9320    18.0550 C.2          1 5GP501   0.0000
    25 H5'1         1.0734    46.2146    12.1269 H            1 5GP501   0.0000
    26 H5'2         0.9687    47.5152    13.1088 H            1 5GP501   0.0000
    27 H4'          2.0917    44.9830    13.8438 H            1 5GP501   0.0000
    28 H3'         -0.3524    46.0026    14.9774 H            1 5GP501   0.0000
    29 H5          -0.3506    44.7104    12.7953 H            1 5GP501   0.0000
    30 H2'          0.1087    44.5826    16.6524 H            1 5GP501   0.0000
    31 H7           0.5887    42.9283    14.5674 H            1 5GP501   0.0000
    32 H1'          2.8295    44.5438    15.9766 H            1 5GP501   0.0000
    33 H9           2.2892    43.8873    18.7766 H            1 5GP501   0.0000
    34 H10          2.3523    50.4481    16.2950 H            1 5GP501   0.0000
    35 H11          2.5684    51.3558    17.7542 H            1 5GP501   0.0000
    36 H12          2.2374    48.0897    16.3442 H            1 5GP501   0.0000
@<TRIPOS>BOND
     1    1    2      ar
     2    1    3      ar
     3    1    4      ar
     4    1    5       1
     5    5    6       1
     6    6    7       1
     7    7    8       1
     8    7    9       1
     9    8   13       1
    10    9   10       1
    11    9   11       1
    12   11   12       1
    13   11   13       1
    14   13   14       1
    15   14   15       1
    16   14   24       1
    17   15   16       2
    18   16   17       1
    19   17   18       1
    20   17   24       2
    21   18   19       2
    22   18   20       1
    23   20   21       2
    24   21   22       1
    25   21   23       1
    26   23   24       1
    27   22   35       1
    28   22   34       1
    29    6   25       1
    30    6   26       1
    31    7   27       1
    32    9   28       1
    33   10   29       1
    34   11   30       1
    35   12   31       1
    36   13   32       1
    37   15   33       1
    38   23   36       1
@<TRIPOS>SUBSTRUCTURE
     1 5GP501      1 GROUP             4 C     5GP     0 **** 5GP C 501
