@<TRIPOS>MOLECULE
3jvv_ACP_2_ligand
   45    47     1     0     0
SMALL
NO_CHARGES


@<TRIPOS>ATOM
     1 PG         -50.4270    25.7040    12.8800 P.3          1 ACP400   0.0000
     2 O1G        -49.2300    24.8090    12.9340 O.co2        1 ACP400   0.0000
     3 O2G        -51.6260    25.1760    13.6180 O.co2        1 ACP400  -1.0000
     4 O3G        -50.0680    27.1270    13.1990 O.co2        1 ACP400  -1.0000
     5 PB         -51.5620    23.9950    10.7210 P.3          1 ACP400   0.0000
     6 O1B        -53.0580    23.9150    10.7150 O.co2        1 ACP400   0.0000
     7 O2B        -50.8190    22.9510    11.5100 O.co2        1 ACP400  -1.0000
     8 C3B        -51.0260    25.6710    11.1580 C.3          1 ACP400   0.0000
     9 PA         -51.9810    24.6450     8.1020 P.3          1 ACP400   0.0000
    10 O1A        -51.7990    26.1000     8.5030 O.co2        1 ACP400   0.0000
    11 O2A        -53.3440    24.0290     8.0080 O.co2        1 ACP400  -1.0000
    12 O3A        -51.1660    23.7700     9.1940 O.3          1 ACP400   0.0000
    13 O5'        -51.1770    24.3520     6.7260 O.3          1 ACP400   0.0000
    14 C5'        -49.8170    24.7920     6.6140 C.3          1 ACP400   0.0000
    15 C4'        -49.3290    24.6370     5.1900 C.3          1 ACP400   0.0000
    16 O4'        -49.6190    23.3200     4.7590 O.3          1 ACP400   0.0000
    17 C3'        -50.0460    25.6030     4.2630 C.3          1 ACP400   0.0000
    18 O3'        -49.1090    26.0040     3.2750 O.3          1 ACP400   0.0000
    19 C2'        -51.1150    24.7150     3.6330 C.3          1 ACP400   0.0000
    20 O2'        -51.5010    25.1530     2.3180 O.3          1 ACP400   0.0000
    21 C1'        -50.3720    23.3880     3.5630 C.3          1 ACP400   0.0000
    22 N9         -51.3280    22.2670     3.6060 N.pl3        1 ACP400   0.0000
    23 C8         -52.2870    22.0910     4.5290 C.2          1 ACP400   0.0000
    24 N7         -53.0050    20.9650     4.2910 N.2          1 ACP400   0.0000
    25 C5         -52.4840    20.4020     3.1880 C.ar         1 ACP400   0.0000
    26 C6         -52.7570    19.1900     2.3930 C.ar         1 ACP400   0.0000
    27 N6         -53.7600    18.3410     2.7480 N.pl3        1 ACP400   0.0000
    28 N1         -51.9680    18.9610     1.3160 N.ar         1 ACP400   0.0000
    29 C2         -50.9750    19.8030     0.9630 C.ar         1 ACP400   0.0000
    30 N3         -50.6750    20.9200     1.6410 N.ar         1 ACP400   0.0000
    31 C4         -51.3800    21.2630     2.7420 C.ar         1 ACP400   0.0000
    32 H3B1       -50.2880    25.9532    10.5450 H            1 ACP400   0.0000
    33 H3B2       -51.7971    26.3007    11.0633 H            1 ACP400   0.0000
    34 H5'1       -49.2420    24.2435     7.2211 H            1 ACP400   0.0000
    35 H5'2       -49.7590    25.7544     6.8795 H            1 ACP400   0.0000
    36 H4'        -48.3428    24.7975     5.1501 H            1 ACP400   0.0000
    37 H3'        -50.4382    26.3811     4.7536 H            1 ACP400   0.0000
    38 H7         -49.5451    26.6438     2.6421 H            1 ACP400   0.0000
    39 H2'        -51.9133    24.6430     4.2310 H            1 ACP400   0.0000
    40 H9         -52.2006    24.5382     1.9539 H            1 ACP400   0.0000
    41 H1'        -49.7841    23.3385     2.7556 H            1 ACP400   0.0000
    42 H11        -52.4513    22.7119     5.2955 H            1 ACP400   0.0000
    43 H12        -53.9379    17.5216     2.2030 H            1 ACP400   0.0000
    44 H13        -54.3190    18.5367     3.5538 H            1 ACP400   0.0000
    45 H14        -50.4334    19.5821     0.1519 H            1 ACP400   0.0000
@<TRIPOS>BOND
     1    1    2      ar
     2    1    3      ar
     3    1    4      ar
     4    1    8       1
     5    5    6      ar
     6    5    7      ar
     7    5    8       1
     8    5   12       1
     9    9   10      ar
    10    9   11      ar
    11    9   12       1
    12    9   13       1
    13   13   14       1
    14   14   15       1
    15   15   16       1
    16   15   17       1
    17   16   21       1
    18   17   18       1
    19   17   19       1
    20   19   20       1
    21   19   21       1
    22   21   22       1
    23   22   23       1
    24   22   31       1
    25   23   24       2
    26   24   25       1
    27   25   26      ar
    28   25   31      ar
    29   26   27       1
    30   26   28      ar
    31   28   29      ar
    32   29   30      ar
    33   30   31      ar
    34   29   45       1
    35   27   44       1
    36   27   43       1
    37    8   32       1
    38    8   33       1
    39   23   42       1
    40   14   34       1
    41   14   35       1
    42   15   36       1
    43   17   37       1
    44   18   38       1
    45   19   39       1
    46   20   40       1
    47   21   41       1
@<TRIPOS>SUBSTRUCTURE
     1 ACP400      1 GROUP             4 B     ACP     0 **** ACP B 400
