@<TRIPOS>MOLECULE
3cui_X4S_1_ligand
   71    74     1     0     0
SMALL
NO_CHARGES


@<TRIPOS>ATOM
     1 O21         10.3120    64.0440    38.9390 O.3          1 X4S316   0.0000
     2 C21         10.4940    63.1240    40.0260 C.3          1 X4S316   0.0000
     3 C31          9.9620    63.7650    41.3190 C.3          1 X4S316   0.0000
     4 O31          8.5310    63.7040    41.3410 O.3          1 X4S316   0.0000
     5 C41         10.5000    63.0780    42.5790 C.3          1 X4S316   0.0000
     6 O41         10.0960    63.8340    43.7200 O.3          1 X4S316   0.0000
     7 C51         12.0270    62.9980    42.5500 C.3          1 X4S316   0.0000
     8 O51         12.3860    62.1970    41.3990 O.3          1 X4S316   0.0000
     9 C11         11.9910    62.7980    40.1320 C.3          1 X4S316   0.0000
    10 S42         12.4900    61.6270    38.8080 S.3          1 X4S316   0.0000
    11 C42         14.2080    62.2570    38.6740 C.3          1 X4S316   0.0000
    12 C32         15.2610    61.1350    38.7840 C.3          1 X4S316   0.0000
    13 O32         15.2200    60.5360    40.0730 O.3          1 X4S316   0.0000
    14 C22         16.6500    61.7110    38.5430 C.3          1 X4S316   0.0000
    15 O22         17.6490    60.6750    38.4970 O.3          1 X4S316   0.0000
    16 C52         14.3990    63.0810    37.3840 C.3          1 X4S316   0.0000
    17 O52         15.7730    63.5690    37.3370 O.3          1 X4S316   0.0000
    18 C12         16.5780    62.4070    37.1950 C.3          1 X4S316   0.0000
    19 S43         18.2080    63.0410    36.7900 S.3          1 X4S316   0.0000
    20 C43         18.0660    63.3070    34.9840 C.3          1 X4S316   0.0000
    21 C33         17.6610    64.7520    34.6340 C.3          1 X4S316   0.0000
    22 O33         16.2560    64.9530    34.8310 O.3          1 X4S316   0.0000
    23 C23         17.9880    65.0560    33.1650 C.3          1 X4S316   0.0000
    24 O23         17.7080    66.4160    32.8510 O.3          1 X4S316   0.0000
    25 C53         19.4360    62.9600    34.3910 C.3          1 X4S316   0.0000
    26 O53         19.6370    63.3370    33.0040 O.3          1 X4S316   0.0000
    27 C13         19.4520    64.7430    32.8480 C.3          1 X4S316   0.0000
    28 S13         19.8930    65.1290    31.1230 S.3          1 X4S316   0.0000
    29 C44         18.7910    64.0510    30.1350 C.3          1 X4S316   0.0000
    30 C54         19.6590    63.1820    29.2060 C.3          1 X4S316   0.0000
    31 O54         18.9300    62.5820    28.0800 O.3          1 X4S316   0.0000
    32 C14         18.2780    63.6730    27.3500 C.3          1 X4S316   0.0000
    33 O14         17.9220    63.4290    25.9900 O.3          1 X4S316   0.0000
    34 C24         17.1110    64.0420    28.2710 C.3          1 X4S316   0.0000
    35 O24         16.0850    64.7760    27.5990 O.3          1 X4S316   0.0000
    36 C34         17.7330    64.8850    29.3730 C.3          1 X4S316   0.0000
    37 O34         16.7030    65.3590    30.2400 O.3          1 X4S316   0.0000
    38 H1          10.6558    63.6340    38.0942 H            1 X4S316   0.0000
    39 H2           9.9844    62.2843    39.8384 H            1 X4S316   0.0000
    40 H3          10.2402    64.7254    41.3363 H            1 X4S316   0.0000
    41 H4           8.1925    64.1223    42.1839 H            1 X4S316   0.0000
    42 H5          10.1205    62.1549    42.6413 H            1 X4S316   0.0000
    43 H6           9.5372    63.2605    44.3190 H            1 X4S316   0.0000
    44 H7          12.3645    62.5674    43.3871 H            1 X4S316   0.0000
    45 H8          12.4176    63.9147    42.4660 H            1 X4S316   0.0000
    46 H9          12.5067    63.6463    40.0121 H            1 X4S316   0.0000
    47 H10         14.3558    62.8769    39.4446 H            1 X4S316   0.0000
    48 H11         15.0707    60.4381    38.0926 H            1 X4S316   0.0000
    49 H12         14.2894    60.5882    40.4354 H            1 X4S316   0.0000
    50 H13         16.8753    62.3725    39.2583 H            1 X4S316   0.0000
    51 H14         17.6573    60.1811    39.3665 H            1 X4S316   0.0000
    52 H15         13.7669    63.8559    37.3835 H            1 X4S316   0.0000
    53 H16         14.2198    62.5041    36.5871 H            1 X4S316   0.0000
    54 H17         16.2289    61.7990    36.4819 H            1 X4S316   0.0000
    55 H18         17.3820    62.6780    34.6145 H            1 X4S316   0.0000
    56 H19         18.1674    65.3848    35.2197 H            1 X4S316   0.0000
    57 H20         15.9332    64.3543    35.5641 H            1 X4S316   0.0000
    58 H21         17.4117    64.4762    32.5891 H            1 X4S316   0.0000
    59 H22         18.5214    66.9719    33.0223 H            1 X4S316   0.0000
    60 H23         19.5589    61.9700    34.4609 H            1 X4S316   0.0000
    61 H24         20.1335    63.4220    34.9388 H            1 X4S316   0.0000
    62 H25         20.0524    65.2396    33.4748 H            1 X4S316   0.0000
    63 H26         18.3088    63.4424    30.7651 H            1 X4S316   0.0000
    64 H27         20.0569    62.4434    29.7502 H            1 X4S316   0.0000
    65 H28         20.3905    63.7544    28.8356 H            1 X4S316   0.0000
    66 H29         18.9106    64.4475    27.3533 H            1 X4S316   0.0000
    67 H30         17.4883    64.2448    25.6075 H            1 X4S316   0.0000
    68 H31         16.7219    63.2100    28.6665 H            1 X4S316   0.0000
    69 H32         15.3512    64.9898    28.2439 H            1 X4S316   0.0000
    70 H33         18.1868    65.6723    28.9556 H            1 X4S316   0.0000
    71 H34         17.0764    65.4960    31.1575 H            1 X4S316   0.0000
@<TRIPOS>BOND
     1    1    2       1
     2    2    3       1
     3    2    9       1
     4    3    4       1
     5    3    5       1
     6    5    6       1
     7    5    7       1
     8    7    8       1
     9    8    9       1
    10    9   10       1
    11   10   11       1
    12   11   12       1
    13   11   16       1
    14   12   13       1
    15   12   14       1
    16   14   15       1
    17   14   18       1
    18   16   17       1
    19   17   18       1
    20   18   19       1
    21   19   20       1
    22   20   21       1
    23   20   25       1
    24   21   22       1
    25   21   23       1
    26   23   24       1
    27   23   27       1
    28   25   26       1
    29   26   27       1
    30   27   28       1
    31   28   29       1
    32   29   30       1
    33   29   36       1
    34   30   31       1
    35   31   32       1
    36   32   33       1
    37   32   34       1
    38   34   35       1
    39   34   36       1
    40   36   37       1
    41    1   38       1
    42    2   39       1
    43    3   40       1
    44    4   41       1
    45    5   42       1
    46    6   43       1
    47    7   44       1
    48    7   45       1
    49    9   46       1
    50   11   47       1
    51   12   48       1
    52   13   49       1
    53   14   50       1
    54   15   51       1
    55   16   52       1
    56   16   53       1
    57   18   54       1
    58   20   55       1
    59   21   56       1
    60   22   57       1
    61   23   58       1
    62   24   59       1
    63   25   60       1
    64   25   61       1
    65   27   62       1
    66   29   63       1
    67   30   64       1
    68   30   65       1
    69   32   66       1
    70   33   67       1
    71   34   68       1
    72   35   69       1
    73   36   70       1
    74   37   71       1
@<TRIPOS>SUBSTRUCTURE
     1 X4S316      1 GROUP             4 A     X4S     0 **** X4S A 316
