@<TRIPOS>MOLECULE
1zwl_FMN_1_ligand
   50    52     1     0     0
SMALL
NO_CHARGES


@<TRIPOS>ATOM
     1 N1           3.7380    22.9540    27.9890 N.2          1 FMN199   0.0000
     2 C2           3.9490    23.1900    29.3320 C.2          1 FMN199   0.0000
     3 O2           3.6260    22.3260    30.1600 O.2          1 FMN199   0.0000
     4 N3           4.5220    24.3970    29.7170 N.pl3        1 FMN199   0.0000
     5 C4           4.8880    25.3540    28.7740 C.2          1 FMN199   0.0000
     6 O4           5.5510    26.3390    29.1280 O.2          1 FMN199   0.0000
     7 C4A          4.6670    25.0860    27.4150 C.2          1 FMN199   0.0000
     8 N5           5.0260    25.9950    26.4320 N.2          1 FMN199   0.0000
     9 C5A          4.7960    25.7020    25.0990 C.ar         1 FMN199   0.0000
    10 C6           5.1510    26.6210    24.1210 C.ar         1 FMN199   0.0000
    11 C7           4.9430    26.3580    22.7690 C.ar         1 FMN199   0.0000
    12 C7M          5.8440    27.1120    21.8320 C.3          1 FMN199   0.0000
    13 C8           4.3430    25.1410    22.3880 C.ar         1 FMN199   0.0000
    14 C8M          4.0620    24.7720    20.9530 C.3          1 FMN199   0.0000
    15 C9           3.9880    24.2290    23.3780 C.ar         1 FMN199   0.0000
    16 C9A          4.2060    24.4960    24.7320 C.ar         1 FMN199   0.0000
    17 N10          3.8500    23.5830    25.7210 N.pl3        1 FMN199   0.0000
    18 C10          4.0910    23.8750    27.0410 C.2          1 FMN199   0.0000
    19 C1'          3.0370    22.3600    25.4100 C.3          1 FMN199   0.0000
    20 C2'          1.5880    22.6980    25.0800 C.3          1 FMN199   0.0000
    21 O2'          0.9800    23.3150    26.1910 O.3          1 FMN199   0.0000
    22 C3'          0.8520    21.4330    24.6230 C.3          1 FMN199   0.0000
    23 O3'          1.2920    21.1160    23.3130 O.3          1 FMN199   0.0000
    24 C4'         -0.6670    21.6200    24.6060 C.3          1 FMN199   0.0000
    25 O4'         -1.2650    20.7470    25.5320 O.3          1 FMN199   0.0000
    26 C5'         -1.2580    21.3400    23.2370 C.3          1 FMN199   0.0000
    27 O5'         -2.4450    22.0770    23.1020 O.3          1 FMN199   0.0000
    28 P           -3.2770    21.9600    21.7290 P.3          1 FMN199   0.0000
    29 O1P         -3.2700    20.4890    21.3240 O.co2        1 FMN199   0.0000
    30 O2P         -4.7020    22.3990    21.9500 O.co2        1 FMN199  -1.0000
    31 O3P         -2.6190    22.7840    20.6360 O.co2        1 FMN199  -1.0000
    32 H1           4.6739    24.5810    30.6881 H            1 FMN199   0.0000
    33 H2           5.5647    27.4899    24.3927 H            1 FMN199   0.0000
    34 H7M1         5.6263    26.8635    20.8881 H            1 FMN199   0.0000
    35 H7M2         5.7083    28.0947    21.9577 H            1 FMN199   0.0000
    36 H7M3         6.7969    26.8795    22.0266 H            1 FMN199   0.0000
    37 H8M1         3.6351    23.8683    20.9186 H            1 FMN199   0.0000
    38 H8M2         3.4449    25.4477    20.5498 H            1 FMN199   0.0000
    39 H8M3         4.9197    24.7553    20.4390 H            1 FMN199   0.0000
    40 H9           3.5666    23.3615    23.1136 H            1 FMN199   0.0000
    41 H1'1         3.0528    21.7527    26.2043 H            1 FMN199   0.0000
    42 H1'2         3.4452    21.8933    24.6254 H            1 FMN199   0.0000
    43 H2'          1.5856    23.3503    24.3220 H            1 FMN199   0.0000
    44 H13          1.4733    24.1550    26.4171 H            1 FMN199   0.0000
    45 H3'          1.0828    20.6790    25.2380 H            1 FMN199   0.0000
    46 H15          0.8236    20.2920    22.9943 H            1 FMN199   0.0000
    47 H4'         -0.8804    22.5622    24.8645 H            1 FMN199   0.0000
    48 H17         -1.0455    19.8021    25.2891 H            1 FMN199   0.0000
    49 H5'1        -1.4558    20.3637    23.1488 H            1 FMN199   0.0000
    50 H5'2        -0.6088    21.6140    22.5274 H            1 FMN199   0.0000
@<TRIPOS>BOND
     1    1    2       1
     2    1   18       2
     3    2    3       2
     4    2    4       1
     5    4    5       1
     6    5    6       2
     7    5    7       1
     8    7    8       2
     9    7   18       1
    10    8    9       1
    11    9   10      ar
    12    9   16      ar
    13   10   11      ar
    14   11   12       1
    15   11   13      ar
    16   13   14       1
    17   13   15      ar
    18   15   16      ar
    19   16   17       1
    20   17   18       1
    21   17   19       1
    22   19   20       1
    23   20   21       1
    24   20   22       1
    25   22   23       1
    26   22   24       1
    27   24   25       1
    28   24   26       1
    29   26   27       1
    30   27   28       1
    31   28   29      ar
    32   28   30      ar
    33   28   31      ar
    34    4   32       1
    35   10   33       1
    36   12   34       1
    37   12   35       1
    38   12   36       1
    39   14   37       1
    40   14   38       1
    41   14   39       1
    42   15   40       1
    43   19   41       1
    44   19   42       1
    45   20   43       1
    46   21   44       1
    47   22   45       1
    48   23   46       1
    49   24   47       1
    50   25   48       1
    51   26   49       1
    52   26   50       1
@<TRIPOS>SUBSTRUCTURE
     1 FMN199      1 GROUP             4 A     FMN     0 **** FMN A 199
