@<TRIPOS>MOLECULE
1s9q_OHT_1_ligand
   59    61     1     0     0
SMALL
NO_CHARGES


@<TRIPOS>ATOM
     1 C10         16.2500    39.2730    26.4460 C.3          1 OHT200   0.0000
     2 C9          17.5730    38.8900    27.0630 C.3          1 OHT200   0.0000
     3 C8          17.9290    39.8320    28.2030 C.2          1 OHT200   0.0000
     4 C11         17.0170    39.6990    29.3920 C.ar         1 OHT200   0.0000
     5 C16         16.2690    40.8410    29.8360 C.ar         1 OHT200   0.0000
     6 C15         15.3440    40.7590    31.0500 C.ar         1 OHT200   0.0000
     7 C14         15.2340    39.4010    31.7930 C.ar         1 OHT200   0.0000
     8 C13         16.0710    38.2590    31.2330 C.ar         1 OHT200   0.0000
     9 C12         16.8970    38.4670    30.0920 C.ar         1 OHT200   0.0000
    10 C7          19.0170    40.7070    28.1490 C.2          1 OHT200   0.0000
    11 C1          19.7120    41.1200    26.8510 C.ar         1 OHT200   0.0000
    12 C2          21.1150    40.7520    26.7410 C.ar         1 OHT200   0.0000
    13 C3          21.8420    41.1070    25.5910 C.ar         1 OHT200   0.0000
    14 C4          21.1020    41.8800    24.4850 C.ar         1 OHT200   0.0000
    15 O4          21.8010    42.2260    23.3740 O.3          1 OHT200   0.0000
    16 C5          19.7200    42.2140    24.6390 C.ar         1 OHT200   0.0000
    17 C6          19.0550    41.8330    25.8110 C.ar         1 OHT200   0.0000
    18 C17         19.6330    41.3400    29.3630 C.ar         1 OHT200   0.0000
    19 C18         19.9590    40.4890    30.6490 C.ar         1 OHT200   0.0000
    20 C19         20.5390    41.2270    31.6840 C.ar         1 OHT200   0.0000
    21 C20         20.8210    42.6050    31.6080 C.ar         1 OHT200   0.0000
    22 O20         21.4010    43.2800    32.6550 O.3          1 OHT200   0.0000
    23 C23         21.7170    44.6720    32.5660 C.3          1 OHT200   0.0000
    24 C24         22.0740    45.1320    33.9930 C.3          1 OHT200   0.0000
    25 N24         23.3940    44.7630    34.4020 N.4          1 OHT200   1.0000
    26 C25         24.1240    45.9170    34.9010 C.3          1 OHT200   0.0000
    27 C26         23.3270    43.7710    35.4770 C.3          1 OHT200   0.0000
    28 C21         20.5110    43.3440    30.4360 C.ar         1 OHT200   0.0000
    29 C22         19.9380    42.7270    29.3650 C.ar         1 OHT200   0.0000
    30 H1          16.0351    38.6425    25.7002 H            1 OHT200   0.0000
    31 H2          15.5320    39.2250    27.1404 H            1 OHT200   0.0000
    32 H3          16.3063    40.2053    26.0886 H            1 OHT200   0.0000
    33 H4          18.2866    38.9365    26.3640 H            1 OHT200   0.0000
    34 H5          17.5123    37.9563    27.4158 H            1 OHT200   0.0000
    35 H6          16.3547    41.7062    29.3419 H            1 OHT200   0.0000
    36 H7          14.8250    41.5569    31.3565 H            1 OHT200   0.0000
    37 H8          14.6469    39.2827    32.5938 H            1 OHT200   0.0000
    38 H9          16.0405    37.3592    31.6683 H            1 OHT200   0.0000
    39 H10         17.4315    37.6903    29.7587 H            1 OHT200   0.0000
    40 H11         21.5610    40.2482    27.4808 H            1 OHT200   0.0000
    41 H12         22.8076    40.8653    25.4950 H            1 OHT200   0.0000
    42 H13         22.7664    41.9781    23.2933 H            1 OHT200   0.0000
    43 H14         19.2355    42.7124    23.9201 H            1 OHT200   0.0000
    44 H15         18.0894    42.0694    25.9197 H            1 OHT200   0.0000
    45 H16         19.7681    39.5098    30.7179 H            1 OHT200   0.0000
    46 H17         20.7681    40.7473    32.5310 H            1 OHT200   0.0000
    47 H18         20.9286    45.1841    32.2251 H            1 OHT200   0.0000
    48 H19         22.4951    44.8111    31.9534 H            1 OHT200   0.0000
    49 H20         21.4202    44.7229    34.6295 H            1 OHT200   0.0000
    50 H21         21.9983    46.1284    34.0319 H            1 OHT200   0.0000
    51 H22         25.0420    45.6354    35.1804 H            1 OHT200   0.0000
    52 H23         24.1919    46.6060    34.1794 H            1 OHT200   0.0000
    53 H24         23.6403    46.3033    35.6864 H            1 OHT200   0.0000
    54 H25         24.2536    43.5191    35.7564 H            1 OHT200   0.0000
    55 H26         22.8371    44.1584    36.2580 H            1 OHT200   0.0000
    56 H27         22.8446    42.9581    35.1508 H            1 OHT200   0.0000
    57 H28         20.7143    44.3223    30.3965 H            1 OHT200   0.0000
    58 H29         19.7249    43.2694    28.5524 H            1 OHT200   0.0000
    59 H30         23.8846    44.3732    33.6227 H            1 OHT200   0.0000
@<TRIPOS>BOND
     1    1    2       1
     2    2    3       1
     3    3    4       1
     4    3   10       2
     5    4    5      ar
     6    4    9      ar
     7    5    6      ar
     8    6    7      ar
     9    7    8      ar
    10    8    9      ar
    11   10   11       1
    12   10   18       1
    13   11   12      ar
    14   11   17      ar
    15   12   13      ar
    16   13   14      ar
    17   14   15       1
    18   14   16      ar
    19   16   17      ar
    20   18   19      ar
    21   18   29      ar
    22   19   20      ar
    23   20   21      ar
    24   21   22       1
    25   21   28      ar
    26   22   23       1
    27   23   24       1
    28   24   25       1
    29   25   26       1
    30   25   27       1
    31   28   29      ar
    32    1   30       1
    33    1   31       1
    34    1   32       1
    35    2   33       1
    36    2   34       1
    37    5   35       1
    38    6   36       1
    39    7   37       1
    40    8   38       1
    41    9   39       1
    42   12   40       1
    43   13   41       1
    44   15   42       1
    45   16   43       1
    46   17   44       1
    47   19   45       1
    48   20   46       1
    49   23   47       1
    50   23   48       1
    51   24   49       1
    52   24   50       1
    53   26   51       1
    54   26   52       1
    55   26   53       1
    56   27   54       1
    57   27   55       1
    58   27   56       1
    59   28   57       1
    60   29   58       1
    61   25   59       1
@<TRIPOS>SUBSTRUCTURE
     1 OHT200      1 GROUP             4 A     OHT     0 **** OHT A 200
