@<TRIPOS>MOLECULE
3jqg_AX6_1_ligand
   33    34     1     0     0
SMALL
NO_CHARGES


@<TRIPOS>ATOM
     1 C4           9.8370   -11.2870    14.4320 C.ar         1 AX6270   0.0000
     2 C5           8.5150   -10.8630    14.7560 C.ar         1 AX6270   0.0000
     3 C6           8.3040    -9.5260    15.1660 C.ar         1 AX6270   0.0000
     4 N1           9.3660    -8.6970    15.2120 N.ar         1 AX6270   0.0000
     5 N3          10.8370   -10.4000    14.5120 N.ar         1 AX6270   1.0000
     6 CAA          3.6200   -14.3990    16.7080 C.3          1 AX6270   0.0000
     7 OAL          4.6220   -15.4440    16.5670 O.3          1 AX6270   0.0000
     8 CAP          5.6410   -15.0030    15.7860 C.ar         1 AX6270   0.0000
     9 CAG          5.3490   -14.5400    14.5030 C.ar         1 AX6270   0.0000
    10 CAE          6.3590   -14.0630    13.6740 C.ar         1 AX6270   0.0000
    11 CAF          6.9540   -15.0040    16.2550 C.ar         1 AX6270   0.0000
    12 CAD          7.9670   -14.5180    15.4200 C.ar         1 AX6270   0.0000
    13 CAO          7.6740   -14.0460    14.1260 C.ar         1 AX6270   0.0000
    14 CAI          8.7380   -13.5180    13.1440 C.3          1 AX6270   0.0000
    15 SAM         10.3140   -12.9620    13.9050 S.3          1 AX6270   0.0000
    16 C2          10.6100    -9.1220    14.9000 C.ar         1 AX6270   0.0000
    17 NAC         11.6300    -8.2720    14.9750 N.pl3        1 AX6270   0.0000
    18 NAB          7.0810    -9.0380    15.5110 N.pl3        1 AX6270   0.0000
    19 H1           7.7480   -11.5017    14.6943 H            1 AX6270   0.0000
    20 HAA1         2.8724   -14.7296    17.2840 H            1 AX6270   0.0000
    21 HAA2         4.0355   -13.5937    17.1308 H            1 AX6270   0.0000
    22 HAA3         3.2633   -14.1554    15.8061 H            1 AX6270   0.0000
    23 HAG          4.4041   -14.5511    14.1759 H            1 AX6270   0.0000
    24 HAE          6.1401   -13.7333    12.7557 H            1 AX6270   0.0000
    25 HAF          7.1680   -15.3453    17.1703 H            1 AX6270   0.0000
    26 HAD          8.9120   -14.5058    15.7470 H            1 AX6270   0.0000
    27 HAI1         8.3438   -12.7422    12.6512 H            1 AX6270   0.0000
    28 HAI2         8.9503   -14.2506    12.4973 H            1 AX6270   0.0000
    29 HAC1        12.5540    -8.5783    14.7459 H            1 AX6270   0.0000
    30 HAC2        11.4730    -7.3266    15.2605 H            1 AX6270   0.0000
    31 HAB1         6.9852    -8.0838    15.7943 H            1 AX6270   0.0000
    32 HAB2         6.2784    -9.6337    15.4812 H            1 AX6270   0.0000
    33 H15         11.7671   -10.6858    14.2814 H            1 AX6270   0.0000
@<TRIPOS>BOND
     1    1    2      ar
     2    1    5      ar
     3    1   15       1
     4    2    3      ar
     5    3    4      ar
     6    3   18       1
     7    4   16      ar
     8    5   16      ar
     9    6    7       1
    10    7    8       1
    11    8    9      ar
    12    8   11      ar
    13    9   10      ar
    14   10   13      ar
    15   11   12      ar
    16   12   13      ar
    17   13   14       1
    18   14   15       1
    19   16   17       1
    20    2   19       1
    21    6   20       1
    22    6   21       1
    23    6   22       1
    24    9   23       1
    25   10   24       1
    26   11   25       1
    27   12   26       1
    28   14   27       1
    29   14   28       1
    30   17   29       1
    31   17   30       1
    32   18   31       1
    33   18   32       1
    34    5   33       1
@<TRIPOS>SUBSTRUCTURE
     1 AX6270      1 GROUP             4 A     AX6     0 **** AX6 A 270
