@<TRIPOS>MOLECULE
3ypi_PGH_1_ligand
   14    13     1     0     0
SMALL
NO_CHARGES


@<TRIPOS>ATOM
     1 C1          90.6150    43.4860    50.3290 C.2          1 PGH249   0.0000
     2 C2          91.9140    43.3010    49.5650 C.3          1 PGH249   0.0000
     3 N2          90.6350    42.9340    51.5410 N.am         1 PGH249   0.0000
     4 O2          89.4500    42.9430    52.3320 O.3          1 PGH249   0.0000
     5 O1          89.6220    44.0900    49.8590 O.2          1 PGH249   0.0000
     6 O1P         91.7620    43.6610    48.1850 O.3          1 PGH249   0.0000
     7 O2P         93.6110    42.1770    48.0130 O.co2        1 PGH249   0.0000
     8 O3P         93.8610    44.4080    47.0190 O.co2        1 PGH249  -1.0000
     9 O4P         92.3800    42.6570    45.9570 O.co2        1 PGH249  -1.0000
    10 P           92.9770    43.1730    47.1990 P.3          1 PGH249   0.0000
    11 H1          92.1924    42.3423    49.6229 H            1 PGH249   0.0000
    12 H2          92.6192    43.8783    49.9766 H            1 PGH249   0.0000
    13 H3          91.4734    42.5174    51.8923 H            1 PGH249   0.0000
    14 H4          89.4278    43.7727    52.8898 H            1 PGH249   0.0000
@<TRIPOS>BOND
     1    1    2       1
     2    1    3      am
     3    1    5       2
     4    2    6       1
     5    3    4       1
     6    6   10       1
     7    7   10      ar
     8    8   10      ar
     9    9   10      ar
    10    2   11       1
    11    2   12       1
    12    3   13       1
    13    4   14       1
@<TRIPOS>SUBSTRUCTURE
     1 PGH249      1 GROUP             4 A     PGH     0 **** PGH A 249
