@<TRIPOS>MOLECULE
4zhx_C1V_1_ligand
   43    46     1     0     0
SMALL
NO_CHARGES


@<TRIPOS>ATOM
     1 OAD        127.9620   -32.7120     6.3320 O.2          1 C1V301   0.0000
     2 CAT        126.7100   -33.2070     6.7100 C.2          1 C1V301   0.0000
     3 CAZ        125.7680   -33.6890     5.7280 C.2          1 C1V301   0.0000
     4 CAU        126.3390   -33.2360     8.0950 C.2          1 C1V301   0.0000
     5 CAE        127.3030   -32.7390     9.1760 C.3          1 C1V301   0.0000
     6 NAA        127.8000   -33.5840    10.0540 N.4          1 C1V301   1.0000
     7 CAX        125.0600   -33.7400     8.4550 C.2          1 C1V301   0.0000
     8 OAB        124.6560   -33.7870     9.8120 O.3          1 C1V301   0.0000
     9 NAO        124.2180   -34.1790     7.5240 N.pl3        1 C1V301   0.0000
    10 CAY        124.5280   -34.1700     6.2100 C.2          1 C1V301   0.0000
    11 SAP        123.6020   -34.6750     4.8780 S.3          1 C1V301   0.0000
    12 CAN        124.6970   -34.3260     3.6460 C.2          1 C1V301   0.0000
    13 CAW        125.8470   -33.7600     4.2420 C.2          1 C1V301   0.0000
    14 CAS        127.0620   -33.3950     3.3360 C.ar         1 C1V301   0.0000
    15 CAL        126.8860   -32.5290     2.2410 C.ar         1 C1V301   0.0000
    16 CAJ        127.9610   -32.2510     1.3730 C.ar         1 C1V301   0.0000
    17 CAK        128.2950   -34.0430     3.5130 C.ar         1 C1V301   0.0000
    18 CAI        129.3790   -33.7510     2.6580 C.ar         1 C1V301   0.0000
    19 CAR        129.2160   -32.8490     1.5930 C.ar         1 C1V301   0.0000
    20 CAV        130.3730   -32.5890     0.6240 C.ar         1 C1V301   0.0000
    21 CAM        130.7820   -33.6340    -0.2150 C.ar         1 C1V301   0.0000
    22 CAG        131.8270   -33.4450    -1.1240 C.ar         1 C1V301   0.0000
    23 CAF        132.4600   -32.2030    -1.2120 C.ar         1 C1V301   0.0000
    24 CAH        132.0510   -31.1520    -0.3880 C.ar         1 C1V301   0.0000
    25 CAQ        131.0070   -31.3420     0.5230 C.ar         1 C1V301   0.0000
    26 OAC        130.6160   -30.2640     1.3370 O.3          1 C1V301   0.0000
    27 HAE1       126.8168   -32.0361     9.6952 H            1 C1V301   0.0000
    28 HAE2       128.0801   -32.3254     8.7016 H            1 C1V301   0.0000
    29 HAA1       128.4056   -33.0948    10.6816 H            1 C1V301   0.0000
    30 HAA2       127.0544   -34.0050    10.5705 H            1 C1V301   0.0000
    31 HAO        123.3245   -34.5278     7.8069 H            1 C1V301   0.0000
    32 HAN        124.5584   -34.4897     2.6693 H            1 C1V301   0.0000
    33 HAL        125.9935   -32.1086     2.0778 H            1 C1V301   0.0000
    34 HAJ        127.8321   -31.6289     0.6008 H            1 C1V301   0.0000
    35 HAK        128.4053   -34.7132     4.2469 H            1 C1V301   0.0000
    36 HAI        130.2658   -34.1873     2.8105 H            1 C1V301   0.0000
    37 HAM        130.3232   -34.5210    -0.1632 H            1 C1V301   0.0000
    38 HAG        132.1214   -34.1990    -1.7113 H            1 C1V301   0.0000
    39 HAF        133.2054   -32.0664    -1.8644 H            1 C1V301   0.0000
    40 HAH        132.5050   -30.2631    -0.4495 H            1 C1V301   0.0000
    41 HAC        131.0778   -29.3810     1.2532 H            1 C1V301   0.0000
    42 HAA3       128.3176   -34.2943     9.5770 H            1 C1V301   0.0000
    43 HAB        123.7534   -34.1438    10.0529 H            1 C1V301   0.0000
@<TRIPOS>BOND
     1    1    2       2
     2    2    3       1
     3    2    4       1
     4    3   10       2
     5    3   13       1
     6    4    5       1
     7    4    7       2
     8    5    6       1
     9    7    8       1
    10    7    9       1
    11    9   10       1
    12   10   11       1
    13   11   12       1
    14   12   13       2
    15   13   14       1
    16   14   15      ar
    17   14   17      ar
    18   15   16      ar
    19   16   19      ar
    20   17   18      ar
    21   18   19      ar
    22   19   20       1
    23   20   21      ar
    24   20   25      ar
    25   21   22      ar
    26   22   23      ar
    27   23   24      ar
    28   24   25      ar
    29   25   26       1
    30   26   41       1
    31    5   27       1
    32    5   28       1
    33    6   29       1
    34    6   30       1
    35    9   31       1
    36   12   32       1
    37   15   33       1
    38   16   34       1
    39   17   35       1
    40   18   36       1
    41   21   37       1
    42   22   38       1
    43   23   39       1
    44   24   40       1
    45    6   42       1
    46    8   43       1
@<TRIPOS>SUBSTRUCTURE
     1 C1V301      1 GROUP             4 B     C1V     0 **** C1V B 301
