@<TRIPOS>MOLECULE
3w2u_ROU_2_ligand
   36    37     1     0     0
SMALL
NO_CHARGES


@<TRIPOS>ATOM
     1 OAA         -6.3010   -15.8170    14.4020 O.co2        1 ROU401   0.0000
     2 CAR         -5.4840   -14.8280    14.2570 C.2          1 ROU401   0.0000
     3 OAD         -4.1900   -14.9570    14.2850 O.co2        1 ROU401  -1.0000
     4 CAV         -5.9960   -13.4970    14.2230 C.2          1 ROU401   0.0000
     5 NAP         -5.5430   -12.6800    15.2700 N.pl3        1 ROU401   0.0000
     6 CAX         -5.9300   -11.3690    15.3200 C.2          1 ROU401   0.0000
     7 OAB         -5.5010   -10.6810    16.2060 O.2          1 ROU401   0.0000
     8 NAQ         -6.8130   -10.8840    14.3960 N.pl3        1 ROU401   0.0000
     9 CAY         -7.2860   -11.6660    13.3510 C.2          1 ROU401   0.0000
    10 OAC         -8.0510   -11.1400    12.5400 O.2          1 ROU401   0.0000
    11 CAW         -6.8730   -13.0090    13.2470 C.2          1 ROU401   0.0000
    12 CAO         -7.2960   -13.8930    12.2220 C.3          1 ROU401   0.0000
    13 CAN         -6.8620   -13.4520    10.7900 C.3          1 ROU401   0.0000
    14 CAS         -5.5380   -13.8590    10.5290 C.ar         1 ROU401   0.0000
    15 CAK         -5.2420   -15.1410     9.9920 C.ar         1 ROU401   0.0000
    16 CAT         -3.9300   -15.6030     9.7330 C.ar         1 ROU401   0.0000
    17 CAZ         -3.7150   -16.9300     9.1680 C.3          1 ROU401   0.0000
    18 FAF         -4.6740   -17.2380     8.3250 F            1 ROU401   0.0000
    19 FAG         -2.6190   -16.9840     8.4540 F            1 ROU401   0.0000
    20 FAE         -3.6700   -17.9180    10.1240 F            1 ROU401   0.0000
    21 CAM         -2.8790   -14.7170     9.9890 C.ar         1 ROU401   0.0000
    22 CAU         -3.1400   -13.4300    10.5090 C.ar         1 ROU401   0.0000
    23 CBA         -2.0640   -12.5010    10.7550 C.3          1 ROU401   0.0000
    24 FAI         -0.7210   -13.1370    11.1840 F            1 ROU401   0.0000
    25 FAJ         -1.8920   -11.7450     9.5610 F            1 ROU401   0.0000
    26 FAH         -2.4760   -11.5850    11.7600 F            1 ROU401   0.0000
    27 CAL         -4.4650   -13.0110    10.7760 C.ar         1 ROU401   0.0000
    28 HAP         -4.9408   -13.0540    15.9754 H            1 ROU401   0.0000
    29 HAQ         -7.1275    -9.9380    14.4751 H            1 ROU401   0.0000
    30 HAO1        -8.2942   -13.9483    12.2457 H            1 ROU401   0.0000
    31 HAO2        -6.9077   -14.7962    12.4048 H            1 ROU401   0.0000
    32 HAN1        -6.9201   -12.4561    10.7205 H            1 ROU401   0.0000
    33 HAN2        -7.4733   -13.8693    10.1176 H            1 ROU401   0.0000
    34 HAK         -6.0058   -15.7524     9.7850 H            1 ROU401   0.0000
    35 HAM         -1.9370   -14.9962     9.8028 H            1 ROU401   0.0000
    36 HAL         -4.6307   -12.0967    11.1456 H            1 ROU401   0.0000
@<TRIPOS>BOND
     1    1    2      ar
     2    2    3      ar
     3    2    4       1
     4    4    5       1
     5    4   11       2
     6    5    6       1
     7    6    7       2
     8    6    8       1
     9    8    9       1
    10    9   10       2
    11    9   11       1
    12   11   12       1
    13   12   13       1
    14   13   14       1
    15   14   15      ar
    16   14   27      ar
    17   15   16      ar
    18   16   17       1
    19   16   21      ar
    20   17   18       1
    21   17   19       1
    22   17   20       1
    23   21   22      ar
    24   22   23       1
    25   22   27      ar
    26   23   24       1
    27   23   25       1
    28   23   26       1
    29   27   36       1
    30    5   28       1
    31    8   29       1
    32   12   30       1
    33   12   31       1
    34   13   32       1
    35   13   33       1
    36   15   34       1
    37   21   35       1
@<TRIPOS>SUBSTRUCTURE
     1 ROU401      1 GROUP             4 B     ROU     0 **** ROU B 401
