@<TRIPOS>MOLECULE
3zo7_K6H_6_ligand
   15    15     1     0     0
SMALL
NO_CHARGES


@<TRIPOS>ATOM
     1 OAB         69.9180    46.6560    41.4060 O.2          1 K6H1093   0.0000
     2 CAI         68.9410    46.9060    40.7190 C.2          1 K6H1093   0.0000
     3 OAG         68.3260    48.2220    40.6220 O.3          1 K6H1093   0.0000
     4 CAE         68.2180    45.9490    39.8850 C.2          1 K6H1093   0.0000
     5 CAF         67.2140    46.5970    39.3240 C.2          1 K6H1093   0.0000
     6 CAK         67.1840    48.0480    39.7610 C.3          1 K6H1093   0.0000
     7 CAJ         67.2200    49.0000    38.5680 C.3          1 K6H1093   0.0000
     8 CLAD        65.8960    48.5640    37.4480 Cl           1 K6H1093   0.0000
     9 CAH         68.5420    48.9270    37.8540 C.2          1 K6H1093   0.0000
    10 OAA         68.6840    48.0940    36.9320 O.co2        1 K6H1093   0.0000
    11 OAC         69.4570    49.7020    38.2090 O.co2        1 K6H1093  -1.0000
    12 HAE         68.4421    44.9822    39.7619 H            1 K6H1093   0.0000
    13 HAF         66.5580    46.1839    38.6923 H            1 K6H1093   0.0000
    14 HAK         66.3497    48.2140    40.2868 H            1 K6H1093   0.0000
    15 HAJ         67.0768    49.9348    38.8931 H            1 K6H1093   0.0000
@<TRIPOS>BOND
     1    1    2       2
     2    2    3       1
     3    2    4       1
     4    3    6       1
     5    4    5       2
     6    5    6       1
     7    6    7       1
     8    7    8       1
     9    7    9       1
    10    9   10      ar
    11    9   11      ar
    12    4   12       1
    13    5   13       1
    14    6   14       1
    15    7   15       1
@<TRIPOS>SUBSTRUCTURE
     1 K6H1093     1 GROUP             4 F     K6H     0 **** K6H F1093
