@<TRIPOS>MOLECULE
1al8_DHP_1_ligand
   41    41     1     0     0
SMALL
NO_CHARGES


@<TRIPOS>ATOM
     1 N1          24.3430    71.5920    -4.9150 N.am         1 DHP361   0.0000
     2 C1          24.5940    71.4280    -7.0310 C.2          1 DHP361   0.0000
     3 O3          24.9670    71.1230    -8.1090 O.3          1 DHP361   0.0000
     4 C2          25.0730    71.0360    -5.8620 C.2          1 DHP361   0.0000
     5 O2          26.1220    70.2170    -5.5960 O.2          1 DHP361   0.0000
     6 C3          23.4580    72.4250    -5.5130 C.2          1 DHP361   0.0000
     7 O1          22.8420    73.0620    -4.3450 O.2          1 DHP361   0.0000
     8 C4          23.5260    72.2910    -6.8530 C.2          1 DHP361   0.0000
     9 C5          22.6320    72.9080    -7.9440 C.3          1 DHP361   0.0000
    10 C6          23.2680    74.1170    -8.6570 C.3          1 DHP361   0.0000
    11 C7          22.3660    74.6850    -9.7710 C.3          1 DHP361   0.0000
    12 C8          22.2790    73.7670   -11.0050 C.3          1 DHP361   0.0000
    13 C9          22.5100    74.5270   -12.3220 C.3          1 DHP361   0.0000
    14 C10         22.6420    73.5990   -13.5460 C.3          1 DHP361   0.0000
    15 C11         24.0440    73.6590   -14.1820 C.3          1 DHP361   0.0000
    16 C12         24.0060    73.7420   -15.7190 C.3          1 DHP361   0.0000
    17 C13         24.3820    72.4130   -16.3980 C.3          1 DHP361   0.0000
    18 C14         25.7620    72.4990   -17.1330 C.3          1 DHP361   0.0000
    19 H1          24.4276    71.4281    -3.9321 H            1 DHP361   0.0000
    20 H2          21.7767    73.2058    -7.5200 H            1 DHP361   0.0000
    21 H3          22.4378    72.2047    -8.6279 H            1 DHP361   0.0000
    22 H4          24.1363    73.8305    -9.0619 H            1 DHP361   0.0000
    23 H5          23.4359    74.8357    -7.9823 H            1 DHP361   0.0000
    24 H6          22.7333    75.5698   -10.0578 H            1 DHP361   0.0000
    25 H7          21.4451    74.8102    -9.4019 H            1 DHP361   0.0000
    26 H8          21.3707    73.3495   -11.0307 H            1 DHP361   0.0000
    27 H9          22.9725    73.0514   -10.9218 H            1 DHP361   0.0000
    28 H10         23.3508    75.0616   -12.2368 H            1 DHP361   0.0000
    29 H11         21.7370    75.1432   -12.4727 H            1 DHP361   0.0000
    30 H12         21.9669    73.8733   -14.2309 H            1 DHP361   0.0000
    31 H13         22.4607    72.6590   -13.2570 H            1 DHP361   0.0000
    32 H14         24.5480    72.8360   -13.9199 H            1 DHP361   0.0000
    33 H15         24.5185    74.4663   -13.8312 H            1 DHP361   0.0000
    34 H16         24.6503    74.4464   -16.0169 H            1 DHP361   0.0000
    35 H17         23.0810    73.9950   -16.0024 H            1 DHP361   0.0000
    36 H18         23.6747    72.1802   -17.0655 H            1 DHP361   0.0000
    37 H19         24.4314    71.6973   -15.7014 H            1 DHP361   0.0000
    38 H20         25.9682    71.6182   -17.5592 H            1 DHP361   0.0000
    39 H21         25.7212    73.2083   -17.8367 H            1 DHP361   0.0000
    40 H22         26.4779    72.7254   -16.4725 H            1 DHP361   0.0000
    41 H23         24.5130    71.4945    -8.9189 H            1 DHP361   0.0000
@<TRIPOS>BOND
     1    1    4      am
     2    1    6      am
     3    2    3       1
     4    2    4       1
     5    2    8       2
     6    4    5       2
     7    6    7       2
     8    6    8       1
     9    8    9       1
    10    9   10       1
    11   10   11       1
    12   11   12       1
    13   12   13       1
    14   13   14       1
    15   14   15       1
    16   15   16       1
    17   16   17       1
    18   17   18       1
    19    1   19       1
    20    3   41       1
    21    9   20       1
    22    9   21       1
    23   10   22       1
    24   10   23       1
    25   11   24       1
    26   11   25       1
    27   12   26       1
    28   12   27       1
    29   13   28       1
    30   13   29       1
    31   14   30       1
    32   14   31       1
    33   15   32       1
    34   15   33       1
    35   16   34       1
    36   16   35       1
    37   17   36       1
    38   17   37       1
    39   18   38       1
    40   18   39       1
    41   18   40       1
@<TRIPOS>SUBSTRUCTURE
     1 DHP361      1 GROUP             4 A     DHP     0 **** DHP A 361
