@<TRIPOS>MOLECULE
4a6g_AME_2_ligand
   24    23     1     0     0
SMALL
NO_CHARGES


@<TRIPOS>ATOM
     1 CT2         17.8930   -40.5340   -26.0220 C.3          1 AME1368   0.0000
     2 CT1         17.0030   -39.3430   -25.7320 C.2          1 AME1368   0.0000
     3 OT          16.1920   -39.1530   -26.8950 O.2          1 AME1368   0.0000
     4 CB          19.3200   -37.7660   -23.7050 C.3          1 AME1368   0.0000
     5 CG          19.0320   -36.5030   -22.9600 C.3          1 AME1368   0.0000
     6 SD          17.8120   -37.1620   -21.9370 S.3          1 AME1368   0.0000
     7 CE          16.7480   -35.7880   -21.5700 C.3          1 AME1368   0.0000
     8 C           20.1320   -37.7930   -26.0460 C.2          1 AME1368   0.0000
     9 O           19.8240   -38.4510   -27.2970 O.co2        1 AME1368   0.0000
    10 OXT         21.2240   -38.3970   -25.3210 O.co2        1 AME1368  -1.0000
    11 N           17.5760   -38.0230   -25.4120 N.am         1 AME1368   0.0000
    12 CA          18.9230   -37.5120   -25.1280 C.3          1 AME1368   0.0000
    13 HT21        18.4832   -40.7088   -25.2339 H            1 AME1368   0.0000
    14 HT22        17.3261   -41.3386   -26.1989 H            1 AME1368   0.0000
    15 HT23        18.4573   -40.3409   -26.8247 H            1 AME1368   0.0000
    16 HB1         18.7860   -38.5216   -23.3257 H            1 AME1368   0.0000
    17 HB2         20.2940   -37.9860   -23.6508 H            1 AME1368   0.0000
    18 HG1         18.6861   -35.7760   -23.5532 H            1 AME1368   0.0000
    19 HG2         19.8237   -36.1679   -22.4491 H            1 AME1368   0.0000
    20 HE1         16.0052   -36.0917   -20.9734 H            1 AME1368   0.0000
    21 HE2         17.2739   -35.0728   -21.1098 H            1 AME1368   0.0000
    22 HE3         16.3659   -35.4259   -22.4202 H            1 AME1368   0.0000
    23 H11         16.8817   -37.3040   -25.3809 H            1 AME1368   0.0000
    24 HA          18.8156   -36.5188   -25.1721 H            1 AME1368   0.0000
@<TRIPOS>BOND
     1    1    2       1
     2    2    3       2
     3    2   11      am
     4    4    5       1
     5    4   12       1
     6    5    6       1
     7    6    7       1
     8    8    9      ar
     9    8   10      ar
    10    8   12       1
    11   11   12       1
    12    1   13       1
    13    1   14       1
    14    1   15       1
    15    4   16       1
    16    4   17       1
    17    5   18       1
    18    5   19       1
    19    7   20       1
    20    7   21       1
    21    7   22       1
    22   12   24       1
    23   11   23       1
@<TRIPOS>SUBSTRUCTURE
     1 AME1368     1 GROUP             4 B     AME     0 **** AME B1368
