@<TRIPOS>MOLECULE
4iwy_ADP_1_ligand
   39    41     1     0     0
SMALL
NO_CHARGES


@<TRIPOS>ATOM
     1 PB         -13.6540    49.6310    69.9610 P.3          1 ADP401   0.0000
     2 O1B        -13.2260    48.6080    70.9830 O.co2        1 ADP401   0.0000
     3 O2B        -15.1540    49.7410    69.8000 O.co2        1 ADP401  -1.0000
     4 O3B        -12.9370    50.9580    70.0740 O.co2        1 ADP401  -1.0000
     5 PA         -13.7770    47.9640    67.5960 P.3          1 ADP401   0.0000
     6 O1A        -15.2940    48.0980    67.6480 O.co2        1 ADP401   0.0000
     7 O2A        -13.0330    48.1390    66.2930 O.co2        1 ADP401  -1.0000
     8 O3A        -13.0770    49.0370    68.5800 O.3          1 ADP401   0.0000
     9 O5'        -13.3940    46.5230    68.2280 O.3          1 ADP401   0.0000
    10 C5'        -14.2810    45.7370    69.0350 C.3          1 ADP401   0.0000
    11 C4'        -13.4770    44.7430    69.8810 C.3          1 ADP401   0.0000
    12 O4'        -13.1170    43.6230    69.0700 O.3          1 ADP401   0.0000
    13 C3'        -12.1570    45.3070    70.4050 C.3          1 ADP401   0.0000
    14 O3'        -12.1910    45.7100    71.7620 O.3          1 ADP401   0.0000
    15 C2'        -11.1330    44.1970    70.2680 C.3          1 ADP401   0.0000
    16 O2'        -10.8150    43.5530    71.5140 O.3          1 ADP401   0.0000
    17 C1'        -11.7520    43.2280    69.2820 C.3          1 ADP401   0.0000
    18 N9         -10.9550    43.4420    68.0560 N.pl3        1 ADP401   0.0000
    19 C8         -11.1290    44.4600    67.1930 C.2          1 ADP401   0.0000
    20 N7         -10.2300    44.3950    66.1730 N.2          1 ADP401   0.0000
    21 C5          -9.4490    43.3280    66.3940 C.ar         1 ADP401   0.0000
    22 C6          -8.3150    42.7080    65.6960 C.ar         1 ADP401   0.0000
    23 N6          -7.8430    43.2460    64.5380 N.pl3        1 ADP401   0.0000
    24 N1          -7.7910    41.5960    66.2640 N.ar         1 ADP401   0.0000
    25 C2          -8.2750    41.0750    67.4040 C.ar         1 ADP401   0.0000
    26 N3          -9.3040    41.5990    68.0900 N.ar         1 ADP401   0.0000
    27 C4          -9.9210    42.7090    67.6440 C.ar         1 ADP401   0.0000
    28 H5'1       -14.9103    45.2344    68.4423 H            1 ADP401   0.0000
    29 H5'2       -14.8019    46.3404    69.6388 H            1 ADP401   0.0000
    30 H4'        -14.0353    44.4319    70.6501 H            1 ADP401   0.0000
    31 H3'        -11.8810    46.0825    69.8373 H            1 ADP401   0.0000
    32 H5         -12.4641    46.6704    71.8178 H            1 ADP401   0.0000
    33 H2'        -10.2952    44.5735    69.8726 H            1 ADP401   0.0000
    34 H7         -10.1377    42.8348    71.3547 H            1 ADP401   0.0000
    35 H1'        -11.6873    42.2833    69.6035 H            1 ADP401   0.0000
    36 H9         -11.8265    45.1702    67.2885 H            1 ADP401   0.0000
    37 H10         -7.0707    42.8198    64.0670 H            1 ADP401   0.0000
    38 H11         -8.2686    44.0674    64.1584 H            1 ADP401   0.0000
    39 H12         -7.8433    40.2476    67.7632 H            1 ADP401   0.0000
@<TRIPOS>BOND
     1    1    2      ar
     2    1    3      ar
     3    1    4      ar
     4    1    8       1
     5    5    6      ar
     6    5    7      ar
     7    5    8       1
     8    5    9       1
     9    9   10       1
    10   10   11       1
    11   11   12       1
    12   11   13       1
    13   12   17       1
    14   13   14       1
    15   13   15       1
    16   15   16       1
    17   15   17       1
    18   17   18       1
    19   18   19       1
    20   18   27       1
    21   19   20       2
    22   20   21       1
    23   21   22      ar
    24   21   27      ar
    25   22   23       1
    26   22   24      ar
    27   24   25      ar
    28   25   26      ar
    29   26   27      ar
    30   25   39       1
    31   23   38       1
    32   23   37       1
    33   10   28       1
    34   10   29       1
    35   11   30       1
    36   13   31       1
    37   14   32       1
    38   15   33       1
    39   16   34       1
    40   17   35       1
    41   19   36       1
@<TRIPOS>SUBSTRUCTURE
     1 ADP401      1 GROUP             4 A     ADP     0 **** ADP A 401
