@<TRIPOS>MOLECULE
4ib4_ERM_1_ligand
   79    86     1     0     0
SMALL
NO_CHARGES


@<TRIPOS>ATOM
     1 C1          23.4430    14.5270     4.8220 C.2          1 ERM2001   0.0000
     2 N1          24.1980    13.5560     5.3870 N.pl3        1 ERM2001   0.0000
     3 O1          21.8250    18.7750    11.4050 O.2          1 ERM2001   0.0000
     4 C10         23.8210    14.6730     9.3470 C.ar         1 ERM2001   0.0000
     5 C11         24.6330    13.5310     9.1340 C.ar         1 ERM2001   0.0000
     6 C12         24.8450    13.0500     7.8010 C.ar         1 ERM2001   0.0000
     7 C13         24.2480    13.7120     6.7790 C.ar         1 ERM2001   0.0000
     8 C14         23.4330    14.8330     6.9980 C.ar         1 ERM2001   0.0000
     9 C15         21.4800    19.6560     6.2140 C.3          1 ERM2001   0.0000
    10 C16         20.7140    18.6210    10.9290 C.2          1 ERM2001   0.0000
    11 C17         19.4820    19.6170    12.8910 C.3          1 ERM2001   0.0000
    12 C18         20.3160    18.9350    13.9560 C.2          1 ERM2001   0.0000
    13 C19         22.3460    19.5190    15.2120 C.3          1 ERM2001   0.0000
    14 N2          21.2000    18.5050     7.1190 N.4          1 ERM2001   1.0000
    15 C2          22.9410    15.3530     5.7820 C.2          1 ERM2001   0.0000
    16 O2          20.0680    20.9210    12.8100 O.3          1 ERM2001   0.0000
    17 C20         22.7470    20.8250    15.9230 C.2          1 ERM2001   0.0000
    18 C21         22.5110    23.3140    16.1100 C.3          1 ERM2001   0.0000
    19 C22         21.8070    24.3510    15.2640 C.3          1 ERM2001   0.0000
    20 C23         21.4840    23.6320    13.9300 C.3          1 ERM2001   0.0000
    21 C24         21.2540    22.2260    14.5010 C.3          1 ERM2001   0.0000
    22 C25         21.3020    21.0630    13.5190 C.3          1 ERM2001   0.0000
    23 C26         17.9970    19.6230    13.2450 C.3          1 ERM2001   0.0000
    24 C27         23.5150    18.8040    14.5660 C.3          1 ERM2001   0.0000
    25 C28         24.4250    18.0710    15.5380 C.ar         1 ERM2001   0.0000
    26 C29         23.9380    17.0270    16.3450 C.ar         1 ERM2001   0.0000
    27 C3          22.0270    16.5450     5.7770 C.3          1 ERM2001   0.0000
    28 N3          19.5660    18.9690    11.5690 N.am         1 ERM2001   0.0000
    29 O3          20.1250    17.8340    14.4230 O.2          1 ERM2001   0.0000
    30 C30         24.7870    16.3530    17.2390 C.ar         1 ERM2001   0.0000
    31 C31         26.1470    16.7030    17.3050 C.ar         1 ERM2001   0.0000
    32 C32         26.6490    17.7240    16.4830 C.ar         1 ERM2001   0.0000
    33 C33         25.7910    18.4000    15.5950 C.ar         1 ERM2001   0.0000
    34 C4          22.2570    17.4190     7.0630 C.3          1 ERM2001   0.0000
    35 N4          21.3100    19.7900    14.2370 N.am         1 ERM2001   0.0000
    36 O4          23.5680    20.7880    16.8550 O.2          1 ERM2001   0.0000
    37 C5          20.9100    19.0870     8.4770 C.3          1 ERM2001   0.0000
    38 N5          22.2250    21.9940    15.5540 N.am         1 ERM2001   0.0000
    39 O5          22.3780    21.1540    12.6350 O.3          1 ERM2001   0.0000
    40 C6          20.5960    18.0110     9.5000 C.3          1 ERM2001   0.0000
    41 C7          21.4320    16.7610     9.3390 C.2          1 ERM2001   0.0000
    42 C8          22.3070    16.5890     8.3510 C.2          1 ERM2001   0.0000
    43 C9          23.2060    15.3630     8.2940 C.ar         1 ERM2001   0.0000
    44 H1          23.2774    14.6241     3.8406 H            1 ERM2001   0.0000
    45 H2          24.6576    12.8266     4.8803 H            1 ERM2001   0.0000
    46 H3          23.6820    14.9980    10.2825 H            1 ERM2001   0.0000
    47 H4          25.0559    13.0633     9.9102 H            1 ERM2001   0.0000
    48 H5          25.4174    12.2483     7.6291 H            1 ERM2001   0.0000
    49 H6          20.7486    20.3326     6.2991 H            1 ERM2001   0.0000
    50 H7          22.3523    20.0745     6.4670 H            1 ERM2001   0.0000
    51 H8          21.5270    19.3331     5.2688 H            1 ERM2001   0.0000
    52 H9          21.9598    18.9058    15.9011 H            1 ERM2001   0.0000
    53 H10         22.1777    23.3633    17.0515 H            1 ERM2001   0.0000
    54 H11         23.4971    23.4798    16.0964 H            1 ERM2001   0.0000
    55 H12         22.4038    25.1372    15.1035 H            1 ERM2001   0.0000
    56 H13         20.9661    24.6565    15.7107 H            1 ERM2001   0.0000
    57 H14         22.2505    23.6603    13.2884 H            1 ERM2001   0.0000
    58 H15         20.6660    24.0008    13.4885 H            1 ERM2001   0.0000
    59 H16         20.3482    22.2210    14.9246 H            1 ERM2001   0.0000
    60 H17         17.4832    20.0805    12.5193 H            1 ERM2001   0.0000
    61 H18         17.6732    18.6817    13.3401 H            1 ERM2001   0.0000
    62 H19         17.8619    20.1107    14.1075 H            1 ERM2001   0.0000
    63 H20         24.0633    19.4821    14.0766 H            1 ERM2001   0.0000
    64 H21         23.1516    18.1369    13.9157 H            1 ERM2001   0.0000
    65 H22         22.9760    16.7613    16.2817 H            1 ERM2001   0.0000
    66 H23         21.0775    16.2318     5.7572 H            1 ERM2001   0.0000
    67 H24         22.2123    17.0986     4.9651 H            1 ERM2001   0.0000
    68 H25         18.7043    18.7682    11.1030 H            1 ERM2001   0.0000
    69 H26         24.4257    15.6280    17.8254 H            1 ERM2001   0.0000
    70 H27         26.7565    16.2247    17.9373 H            1 ERM2001   0.0000
    71 H28         27.6169    17.9714    16.5282 H            1 ERM2001   0.0000
    72 H29         26.1548    19.1180    15.0016 H            1 ERM2001   0.0000
    73 H30         23.1440    17.8699     6.9633 H            1 ERM2001   0.0000
    74 H31         20.1250    19.7022     8.4039 H            1 ERM2001   0.0000
    75 H32         21.7097    19.6022     8.7852 H            1 ERM2001   0.0000
    76 H33         22.4219    20.3253    12.0770 H            1 ERM2001   0.0000
    77 H34         19.6404    17.7472     9.3686 H            1 ERM2001   0.0000
    78 H35         21.3218    16.0266    10.0087 H            1 ERM2001   0.0000
    79 H36         20.3482    18.0907     6.7984 H            1 ERM2001   0.0000
@<TRIPOS>BOND
     1    1    2       1
     2    1   15       2
     3    2    7       1
     4    3   10       2
     5    4    5      ar
     6    4   43      ar
     7    5    6      ar
     8    6    7      ar
     9    7    8      ar
    10    8   15       1
    11    8   43      ar
    12    9   14       1
    13   10   28      am
    14   10   40       1
    15   11   12       1
    16   11   16       1
    17   11   23       1
    18   11   28       1
    19   12   29       2
    20   12   35      am
    21   13   17       1
    22   13   24       1
    23   13   35       1
    24   14   34       1
    25   14   37       1
    26   15   27       1
    27   16   22       1
    28   17   36       2
    29   17   38      am
    30   18   19       1
    31   18   38       1
    32   19   20       1
    33   20   21       1
    34   21   22       1
    35   21   38       1
    36   22   35       1
    37   22   39       1
    38   24   25       1
    39   25   26      ar
    40   25   33      ar
    41   26   30      ar
    42   27   34       1
    43   30   31      ar
    44   31   32      ar
    45   32   33      ar
    46   34   42       1
    47   37   40       1
    48   40   41       1
    49   41   42       2
    50   42   43       1
    51    1   44       1
    52    2   45       1
    53    4   46       1
    54    5   47       1
    55    6   48       1
    56    9   49       1
    57    9   50       1
    58    9   51       1
    59   13   52       1
    60   18   53       1
    61   18   54       1
    62   19   55       1
    63   19   56       1
    64   20   57       1
    65   20   58       1
    66   21   59       1
    67   23   60       1
    68   23   61       1
    69   23   62       1
    70   24   63       1
    71   24   64       1
    72   26   65       1
    73   27   66       1
    74   27   67       1
    75   28   68       1
    76   30   69       1
    77   31   70       1
    78   32   71       1
    79   33   72       1
    80   34   73       1
    81   37   74       1
    82   37   75       1
    83   39   76       1
    84   40   77       1
    85   41   78       1
    86   14   79       1
@<TRIPOS>SUBSTRUCTURE
     1 ERM2001     1 GROUP             4 A     ERM     0 **** ERM A2001
