@<TRIPOS>MOLECULE
4a6a_TTP_1_ligand
   42    43     1     0     0
SMALL
NO_CHARGES


@<TRIPOS>ATOM
     1 PA          16.2640   -24.0430    37.2540 P.3          1 TTP201   0.0000
     2 O1A         16.5810   -25.3590    37.9330 O.co2        1 TTP201   0.0000
     3 O2A         17.0210   -23.8400    35.9470 O.co2        1 TTP201  -1.0000
     4 O3A         16.6450   -22.7650    38.1830 O.3          1 TTP201   0.0000
     5 PB          17.8060   -22.8250    39.3120 P.3          1 TTP201   0.0000
     6 O1B         18.5900   -21.5350    39.2570 O.co2        1 TTP201   0.0000
     7 O2B         18.6460   -24.0730    39.1580 O.co2        1 TTP201  -1.0000
     8 O3B         16.9700   -22.8250    40.7000 O.3          1 TTP201   0.0000
     9 PG          16.5330   -24.1700    41.4820 P.3          1 TTP201   0.0000
    10 O1G         17.3180   -24.1670    42.7920 O.co2        1 TTP201   0.0000
    11 O2G         16.7090   -25.4190    40.6540 O.co2        1 TTP201  -1.0000
    12 O3G         15.0520   -24.0000    41.7360 O.co2        1 TTP201  -1.0000
    13 O5'         14.6560   -23.8930    37.0420 O.3          1 TTP201   0.0000
    14 C5'         13.7850   -23.9790    38.1670 C.3          1 TTP201   0.0000
    15 C4'         12.3510   -24.0960    37.6880 C.3          1 TTP201   0.0000
    16 O4'         11.9400   -22.8530    37.1100 O.3          1 TTP201   0.0000
    17 C3'         12.1550   -25.1050    36.5660 C.3          1 TTP201   0.0000
    18 O3'         12.0360   -26.4590    37.0270 O.3          1 TTP201   0.0000
    19 C2'         10.9150   -24.5730    35.8360 C.3          1 TTP201   0.0000
    20 C1'         10.9240   -23.0630    36.1100 C.3          1 TTP201   0.0000
    21 N1          11.2370   -22.2380    34.9120 N.pl3        1 TTP201   0.0000
    22 C2          10.7440   -20.8990    34.7840 C.2          1 TTP201   0.0000
    23 O2          10.0350   -20.4040    35.6730 O.2          1 TTP201   0.0000
    24 N3          11.0220   -20.1430    33.7030 N.pl3        1 TTP201   0.0000
    25 C4          11.7900   -20.6070    32.6890 C.2          1 TTP201   0.0000
    26 O4          12.0520   -19.8910    31.6860 O.2          1 TTP201   0.0000
    27 C5          12.3240   -22.0010    32.7920 C.2          1 TTP201   0.0000
    28 C5M         13.1720   -22.6100    31.7170 C.3          1 TTP201   0.0000
    29 C6          12.0190   -22.7530    33.9260 C.2          1 TTP201   0.0000
    30 H5'1        13.8830   -23.1571    38.7281 H            1 TTP201   0.0000
    31 H5'2        14.0215   -24.7841    38.7109 H            1 TTP201   0.0000
    32 H4'         11.7547   -24.3252    38.4574 H            1 TTP201   0.0000
    33 H3'         12.9378   -25.0477    35.9464 H            1 TTP201   0.0000
    34 H5          12.9428   -26.8789    37.0656 H            1 TTP201   0.0000
    35 H2'1        10.0836   -24.9930    36.1998 H            1 TTP201   0.0000
    36 H2'2        10.9780   -24.7543    34.8546 H            1 TTP201   0.0000
    37 H1'         10.0357   -22.7882    36.4780 H            1 TTP201   0.0000
    38 H9          10.6515   -19.2158    33.6486 H            1 TTP201   0.0000
    39 H5M1        13.4233   -23.5419    31.9785 H            1 TTP201   0.0000
    40 H5M2        12.6583   -22.6315    30.8593 H            1 TTP201   0.0000
    41 H5M3        14.0003   -22.0630    31.5958 H            1 TTP201   0.0000
    42 H13         12.3794   -23.6815    34.0151 H            1 TTP201   0.0000
@<TRIPOS>BOND
     1    1    2      ar
     2    1    3      ar
     3    1    4       1
     4    1   13       1
     5    4    5       1
     6    5    6      ar
     7    5    7      ar
     8    5    8       1
     9    8    9       1
    10    9   10      ar
    11    9   11      ar
    12    9   12      ar
    13   13   14       1
    14   14   15       1
    15   15   16       1
    16   15   17       1
    17   16   20       1
    18   17   18       1
    19   17   19       1
    20   19   20       1
    21   20   21       1
    22   21   22       1
    23   21   29       1
    24   22   23       2
    25   22   24       1
    26   24   25       1
    27   25   26       2
    28   25   27       1
    29   27   28       1
    30   27   29       2
    31   29   42       1
    32   28   41       1
    33   28   40       1
    34   28   39       1
    35   14   30       1
    36   14   31       1
    37   15   32       1
    38   17   33       1
    39   18   34       1
    40   19   35       1
    41   19   36       1
    42   20   37       1
    43   24   38       1
@<TRIPOS>SUBSTRUCTURE
     1 TTP201      1 GROUP             4 A     TTP     0 **** TTP A 201
