@<TRIPOS>MOLECULE
2jir_MGD_2_ligand
   69    74     1     0     0
SMALL
NO_CHARGES


@<TRIPOS>ATOM
     1 PB          77.5720    19.8530    -2.7490 P.3          1 MGD812   0.0000
     2 O1B         77.7290    21.0750    -3.6430 O.co2        1 MGD812   0.0000
     3 O2B         76.5170    18.8180    -3.1000 O.co2        1 MGD812  -1.0000
     4 O3B         77.3060    20.3800    -1.2660 O.3          1 MGD812   0.0000
     5 O3A         75.9910    19.7910     0.6240 O.3          1 MGD812   0.0000
     6 PA          77.5100    19.5860     0.1020 P.3          1 MGD812   0.0000
     7 O1A         78.4390    20.3770     0.9980 O.co2        1 MGD812   0.0000
     8 O2A         77.7710    18.1180    -0.0040 O.co2        1 MGD812  -1.0000
     9 O5'         78.9970    19.0770    -2.7490 O.3          1 MGD812   0.0000
    10 C5'         80.1240    19.5230    -1.9910 C.3          1 MGD812   0.0000
    11 C4'         81.3590    19.4040    -2.8500 C.3          1 MGD812   0.0000
    12 O4'         81.5730    18.0610    -3.2640 O.3          1 MGD812   0.0000
    13 C3'         81.3120    20.1960    -4.1570 C.3          1 MGD812   0.0000
    14 O3'         81.9120    21.4850    -3.9790 O.3          1 MGD812   0.0000
    15 C2'         82.1300    19.3530    -5.1200 C.3          1 MGD812   0.0000
    16 O2'         83.2330    20.0790    -5.6810 O.3          1 MGD812   0.0000
    17 C1'         82.6240    18.2510    -4.2070 C.3          1 MGD812   0.0000
    18 N9          83.2070    17.0590    -4.8760 N.pl3        1 MGD812   0.0000
    19 C8          83.0470    16.6350    -6.1560 C.2          1 MGD812   0.0000
    20 N7          83.7800    15.5200    -6.4100 N.2          1 MGD812   0.0000
    21 C5          84.4650    15.2270    -5.2870 C.2          1 MGD812   0.0000
    22 C6          85.4450    14.1900    -4.8650 C.2          1 MGD812   0.0000
    23 O6          85.8180    13.3040    -5.6530 O.2          1 MGD812   0.0000
    24 N1          85.9200    14.2250    -3.6080 N.pl3        1 MGD812   0.0000
    25 C2          85.5400    15.1860    -2.7400 C.2          1 MGD812   0.0000
    26 N2          86.0760    15.1240    -1.5030 N.pl3        1 MGD812   0.0000
    27 N3          84.6650    16.1950    -3.0530 N.2          1 MGD812   0.0000
    28 C4          84.0880    16.2460    -4.2770 C.2          1 MGD812   0.0000
    29 C10         74.8680    18.9860     0.2400 C.3          1 MGD812   0.0000
    30 C11         73.8700    19.1110     1.3830 C.3          1 MGD812   0.0000
    31 O11         73.5280    20.5040     1.5360 O.3          1 MGD812   0.0000
    32 C12         72.6740    18.1810     1.2070 C.2          1 MGD812   0.0000
    33 S12         73.0020    16.5210     1.0410 S.2          1 MGD812   0.0000
    34 C13         71.3940    18.6140     1.2910 C.2          1 MGD812   0.0000
    35 S13         70.0420    17.5700     1.2600 S.2          1 MGD812   0.0000
    36 C14         71.1120    20.0670     1.5230 C.3          1 MGD812   0.0000
    37 N15         70.6710    20.7380     0.3210 N.pl3        1 MGD812   0.0000
    38 C16         70.8930    22.0500     0.1780 C.2          1 MGD812   0.0000
    39 C17         70.3950    22.7750    -0.9900 C.2          1 MGD812   0.0000
    40 O17         69.7200    22.1950    -1.8760 O.2          1 MGD812   0.0000
    41 N18         70.6510    24.0750    -1.0690 N.pl3        1 MGD812   0.0000
    42 C19         71.3300    24.7720    -0.1530 C.2          1 MGD812   0.0000
    43 N19         71.5080    26.0890    -0.4020 N.pl3        1 MGD812   0.0000
    44 N20         71.8320    24.1710     0.9680 N.2          1 MGD812   0.0000
    45 C21         71.6540    22.8270     1.1770 C.2          1 MGD812   0.0000
    46 N22         72.1190    22.1760     2.2710 N.pl3        1 MGD812   0.0000
    47 C23         72.3050    20.7480     2.2180 C.3          1 MGD812   0.0000
    48 H5'1        80.2261    18.9559    -1.1737 H            1 MGD812   0.0000
    49 H5'2        79.9922    20.4767    -1.7207 H            1 MGD812   0.0000
    50 H4'         82.1504    19.7067    -2.3189 H            1 MGD812   0.0000
    51 H3'         80.3702    20.2871    -4.4805 H            1 MGD812   0.0000
    52 H5          82.8655    21.3731    -3.6992 H            1 MGD812   0.0000
    53 H2'         81.5492    18.9789    -5.8429 H            1 MGD812   0.0000
    54 H7          84.0377    19.9654    -5.0983 H            1 MGD812   0.0000
    55 H1'         83.3758    18.6561    -3.6867 H            1 MGD812   0.0000
    56 H9          82.4617    17.0878    -6.8287 H            1 MGD812   0.0000
    57 H10         86.5684    13.5245    -3.3099 H            1 MGD812   0.0000
    58 H11         85.8314    15.8094    -0.8172 H            1 MGD812   0.0000
    59 H12         86.7178    14.3927    -1.2722 H            1 MGD812   0.0000
    60 H13         75.1455    18.0327     0.1207 H            1 MGD812   0.0000
    61 H14         74.4689    19.3260    -0.6115 H            1 MGD812   0.0000
    62 H15         74.3419    18.8297     2.2186 H            1 MGD812   0.0000
    63 H16         70.3480    20.1080     2.1669 H            1 MGD812   0.0000
    64 H17         70.2032    20.2253    -0.3989 H            1 MGD812   0.0000
    65 H18         70.3119    24.5676    -1.8705 H            1 MGD812   0.0000
    66 H19         72.0089    26.6579     0.2502 H            1 MGD812   0.0000
    67 H20         71.1387    26.4941    -1.2384 H            1 MGD812   0.0000
    68 H21         72.3310    22.6819     3.1071 H            1 MGD812   0.0000
    69 H22         72.3794    20.3966     3.1513 H            1 MGD812   0.0000
@<TRIPOS>BOND
     1    1    2      ar
     2    1    3      ar
     3    1    4       1
     4    1    9       1
     5    4    6       1
     6    5    6       1
     7    5   29       1
     8    6    7      ar
     9    6    8      ar
    10    9   10       1
    11   10   11       1
    12   11   12       1
    13   11   13       1
    14   12   17       1
    15   13   14       1
    16   13   15       1
    17   15   16       1
    18   15   17       1
    19   17   18       1
    20   18   19       1
    21   18   28       1
    22   19   20       2
    23   20   21       1
    24   21   22       1
    25   21   28       2
    26   22   23       2
    27   22   24       1
    28   24   25       1
    29   25   26       1
    30   25   27       2
    31   27   28       1
    32   29   30       1
    33   30   31       1
    34   30   32       1
    35   31   47       1
    36   32   33       2
    37   32   34       1
    38   34   35       2
    39   34   36       1
    40   36   37       1
    41   36   47       1
    42   37   38       1
    43   38   39       1
    44   38   45       2
    45   39   40       2
    46   39   41       1
    47   41   42       1
    48   42   43       1
    49   42   44       2
    50   44   45       1
    51   45   46       1
    52   46   47       1
    53   47   69       1
    54   46   68       1
    55   10   48       1
    56   10   49       1
    57   11   50       1
    58   13   51       1
    59   14   52       1
    60   15   53       1
    61   16   54       1
    62   17   55       1
    63   19   56       1
    64   24   57       1
    65   26   58       1
    66   26   59       1
    67   29   60       1
    68   29   61       1
    69   30   62       1
    70   36   63       1
    71   37   64       1
    72   41   65       1
    73   43   66       1
    74   43   67       1
@<TRIPOS>SUBSTRUCTURE
     1 MGD812      1 GROUP             4 A     MGD     0 **** MGD A 812
