@<TRIPOS>MOLECULE
1b8u_NAD_1_ligand
   70    74     1     0     0
SMALL
NO_CHARGES


@<TRIPOS>ATOM
     1 PA          27.7920     9.5250    26.9900 P.3          1 NAD334   0.0000
     2 O1A         27.7450    10.0410    25.6020 O.co2        1 NAD334   0.0000
     3 O2A         27.8270     8.0630    27.1930 O.co2        1 NAD334  -1.0000
     4 O5B         26.6510    10.2880    27.8360 O.3          1 NAD334   0.0000
     5 C5B         26.3910    11.6940    27.7580 C.3          1 NAD334   0.0000
     6 C4B         24.8930    11.7300    27.9720 C.3          1 NAD334   0.0000
     7 O4B         24.4230    13.0490    28.2720 O.3          1 NAD334   0.0000
     8 C3B         24.2060    11.2690    26.6930 C.3          1 NAD334   0.0000
     9 O3B         23.4210    10.0850    26.8760 O.3          1 NAD334   0.0000
    10 C2B         23.3920    12.4630    26.2170 C.3          1 NAD334   0.0000
    11 O2B         22.1890    12.0960    25.5140 O.3          1 NAD334   0.0000
    12 C1B         23.2050    13.2520    27.5140 C.3          1 NAD334   0.0000
    13 N9A         22.9380    14.7220    27.3100 N.pl3        1 NAD334   0.0000
    14 C8A         23.3500    15.4870    26.2690 C.2          1 NAD334   0.0000
    15 N7A         22.8730    16.7240    26.3920 N.2          1 NAD334   0.0000
    16 C5A         22.2000    16.6910    27.5400 C.ar         1 NAD334   0.0000
    17 C6A         21.4520    17.7230    28.0230 C.ar         1 NAD334   0.0000
    18 N6A         21.3470    18.8300    27.2970 N.pl3        1 NAD334   0.0000
    19 N1A         20.7210    17.5060    29.1400 N.ar         1 NAD334   0.0000
    20 C2A         20.7110    16.3180    29.7380 C.ar         1 NAD334   0.0000
    21 N3A         21.4260    15.3060    29.2420 N.ar         1 NAD334   0.0000
    22 C4A         22.1920    15.4810    28.1290 C.ar         1 NAD334   0.0000
    23 O3          28.9920    10.2060    27.7990 O.3          1 NAD334   0.0000
    24 PN          29.9360     9.8700    29.0020 P.3          1 NAD334   0.0000
    25 O1N         31.0380     9.0050    28.5060 O.co2        1 NAD334   0.0000
    26 O2N         29.2480     9.4310    30.2150 O.co2        1 NAD334  -1.0000
    27 O5D         30.5080    11.3310    29.1650 O.3          1 NAD334   0.0000
    28 C5D         29.7430    12.4100    29.7440 C.3          1 NAD334   0.0000
    29 C4D         30.6520    13.6190    29.9650 C.3          1 NAD334   0.0000
    30 O4D         31.7220    13.2010    30.8400 O.3          1 NAD334   0.0000
    31 C3D         31.3490    14.0890    28.6860 C.3          1 NAD334   0.0000
    32 O3D         31.3130    15.5240    28.4970 O.3          1 NAD334   0.0000
    33 C2D         32.7360    13.4540    28.8410 C.3          1 NAD334   0.0000
    34 O2D         33.7770    13.9260    27.9840 O.3          1 NAD334   0.0000
    35 C1D         32.9480    13.7110    30.2980 C.3          1 NAD334   0.0000
    36 N1N         34.1370    13.1520    30.9710 N.ar         1 NAD334   1.0000
    37 C2N         34.4740    13.8250    32.1440 C.ar         1 NAD334   0.0000
    38 C3N         35.4210    13.2940    32.9960 C.ar         1 NAD334   0.0000
    39 C7N         35.7620    14.1100    34.2370 C.2          1 NAD334   0.0000
    40 O7N         36.7680    13.8830    34.8920 O.2          1 NAD334   0.0000
    41 N7N         34.8620    15.0150    34.6070 N.am         1 NAD334   0.0000
    42 C4N         36.0080    12.0540    32.7070 C.ar         1 NAD334   0.0000
    43 C5N         35.6870    11.3610    31.5280 C.ar         1 NAD334   0.0000
    44 C6N         34.7760    11.9340    30.6330 C.ar         1 NAD334   0.0000
    45 H5B1        26.6421    12.0638    26.8635 H            1 NAD334   0.0000
    46 H5B2        26.8754    12.1963    28.4743 H            1 NAD334   0.0000
    47 H4B         24.6498    11.1129    28.7203 H            1 NAD334   0.0000
    48 H3B         24.9104    11.0765    26.0098 H            1 NAD334   0.0000
    49 H5          22.7100    10.2585    27.5575 H            1 NAD334   0.0000
    50 H2B         23.9624    13.0051    25.6000 H            1 NAD334   0.0000
    51 H7          21.4350    12.0113    26.1654 H            1 NAD334   0.0000
    52 H1B         22.4411    12.8553    28.0230 H            1 NAD334   0.0000
    53 H8A         23.9282    15.1684    25.5179 H            1 NAD334   0.0000
    54 H6A1        20.8030    19.5987    27.6333 H            1 NAD334   0.0000
    55 H6A2        21.8119    18.8948    26.4140 H            1 NAD334   0.0000
    56 H2A         20.1644    16.1822    30.5643 H            1 NAD334   0.0000
    57 H5D1        29.3616    12.1153    30.6202 H            1 NAD334   0.0000
    58 H5D2        28.9994    12.6611    29.1244 H            1 NAD334   0.0000
    59 H4D         30.1378    14.3707    30.3779 H            1 NAD334   0.0000
    60 H3D         30.8939    13.6594    27.9060 H            1 NAD334   0.0000
    61 H17         31.7839    15.7602    27.6470 H            1 NAD334   0.0000
    62 H2D         32.6447    12.4671    28.7077 H            1 NAD334   0.0000
    63 H19         34.6238    13.4338    28.1859 H            1 NAD334   0.0000
    64 H1D         32.9553    14.7014    30.4363 H            1 NAD334   0.0000
    65 H2N         34.0297    14.6924    32.3682 H            1 NAD334   0.0000
    66 H7N1        35.0264    15.5830    35.4134 H            1 NAD334   0.0000
    67 H7N2        34.0203    15.1280    34.0790 H            1 NAD334   0.0000
    68 H4N         36.6642    11.6574    33.3490 H            1 NAD334   0.0000
    69 H5N         36.1025    10.4729    31.3313 H            1 NAD334   0.0000
    70 H6N         34.5777    11.4865    29.7610 H            1 NAD334   0.0000
@<TRIPOS>BOND
     1    1    2      ar
     2    1    3      ar
     3    1    4       1
     4    1   23       1
     5    4    5       1
     6    5    6       1
     7    6    7       1
     8    6    8       1
     9    7   12       1
    10    8    9       1
    11    8   10       1
    12   10   11       1
    13   10   12       1
    14   12   13       1
    15   13   14       1
    16   13   22       1
    17   14   15       2
    18   15   16       1
    19   16   17      ar
    20   16   22      ar
    21   17   18       1
    22   17   19      ar
    23   19   20      ar
    24   20   21      ar
    25   21   22      ar
    26   23   24       1
    27   24   25      ar
    28   24   26      ar
    29   24   27       1
    30   27   28       1
    31   28   29       1
    32   29   30       1
    33   29   31       1
    34   30   35       1
    35   31   32       1
    36   31   33       1
    37   33   34       1
    38   33   35       1
    39   35   36       1
    40   36   37      ar
    41   36   44      ar
    42   37   38      ar
    43   38   39       1
    44   38   42      ar
    45   39   40       2
    46   39   41      am
    47   42   43      ar
    48   43   44      ar
    49   44   70       1
    50    5   45       1
    51    5   46       1
    52    6   47       1
    53    8   48       1
    54    9   49       1
    55   10   50       1
    56   11   51       1
    57   12   52       1
    58   14   53       1
    59   18   54       1
    60   18   55       1
    61   20   56       1
    62   43   69       1
    63   28   57       1
    64   28   58       1
    65   29   59       1
    66   31   60       1
    67   32   61       1
    68   33   62       1
    69   34   63       1
    70   35   64       1
    71   37   65       1
    72   41   66       1
    73   41   67       1
    74   42   68       1
@<TRIPOS>SUBSTRUCTURE
     1 NAD334      1 GROUP             4 A     NAD     0 **** NAD A 334
