@<TRIPOS>MOLECULE
2bdz_E64_2_ligand
   54    53     1     0     0
SMALL
NO_CHARGES


@<TRIPOS>ATOM
     1 C1          -2.9510    34.6870    23.6860 C.2          1 E64502   0.0000
     2 O1          -3.5700    33.6020    23.7290 O.co2        1 E64502   0.0000
     3 O2          -3.5020    35.8000    23.4760 O.co2        1 E64502  -1.0000
     4 C2          -1.4610    34.6490    23.9590 C.3          1 E64502   0.0000
     5 C3          -0.6050    34.9440    22.7390 C.3          1 E64502   0.0000
     6 O3          -0.6680    33.7870    21.9160 O.3          1 E64502   0.0000
     7 C4           0.8130    35.2340    23.2110 C.2          1 E64502   0.0000
     8 O4           1.2630    36.3860    23.2140 O.2          1 E64502   0.0000
     9 N1           1.5230    34.2080    23.6600 N.am         1 E64502   0.0000
    10 C6           2.9400    34.3590    23.9690 C.3          1 E64502   0.0000
    11 C7           3.3210    33.4100    25.1060 C.3          1 E64502   0.0000
    12 C8           4.7540    33.5740    25.6070 C.3          1 E64502   0.0000
    13 C9           4.9400    34.8860    26.3590 C.3          1 E64502   0.0000
    14 C10          5.1170    32.3890    26.4930 C.3          1 E64502   0.0000
    15 C11          3.7560    34.0850    22.7410 C.2          1 E64502   0.0000
    16 O5           3.5600    33.0510    22.1270 O.2          1 E64502   0.0000
    17 N2           4.6620    35.0070    22.3730 N.am         1 E64502   0.0000
    18 C12          5.6650    34.7240    21.3420 C.3          1 E64502   0.0000
    19 C13          5.3820    35.4750    20.0380 C.3          1 E64502   0.0000
    20 C14          3.9630    35.2600    19.4990 C.3          1 E64502   0.0000
    21 C15          3.8130    33.9790    18.6700 C.3          1 E64502   0.0000
    22 N3           4.5840    34.0410    17.4360 N.pl3        1 E64502   1.0000
    23 C16          4.2290    34.6950    16.3100 C.cat        1 E64502   0.0000
    24 N4           5.0440    34.6170    15.2480 N.pl3        1 E64502   0.0000
    25 N5           3.1030    35.4160    16.2130 N.pl3        1 E64502   0.0000
    26 H17         -0.9705    35.7343    22.2472 H            1 E64502   0.0000
    27 H18          0.2522    33.4159    21.7917 H            1 E64502   0.0000
    28 H16          1.0813    33.3200    23.7882 H            1 E64502   0.0000
    29 H15          3.1073    35.2997    24.2642 H            1 E64502   0.0000
    30 H20          3.2082    32.4709    24.7814 H            1 E64502   0.0000
    31 H21          2.7003    33.5745    25.8726 H            1 E64502   0.0000
    32 H22          5.3659    33.5749    24.8161 H            1 E64502   0.0000
    33 H23          5.8870    34.9597    26.6716 H            1 E64502   0.0000
    34 H24          4.7292    35.6515    25.7510 H            1 E64502   0.0000
    35 H25          4.3259    34.9080    27.1479 H            1 E64502   0.0000
    36 H26          6.0553    32.4942    26.8224 H            1 E64502   0.0000
    37 H27          4.4921    32.3521    27.2728 H            1 E64502   0.0000
    38 H28          5.0419    31.5429    25.9653 H            1 E64502   0.0000
    39 H1           4.6517    35.9054    22.8120 H            1 E64502   0.0000
    40 H2           5.6656    33.7418    21.1543 H            1 E64502   0.0000
    41 H3           6.5639    34.9987    21.6832 H            1 E64502   0.0000
    42 H4           6.0332    35.1630    19.3462 H            1 E64502   0.0000
    43 H5           5.5127    36.4528    20.2020 H            1 E64502   0.0000
    44 H6           3.7215    36.0406    18.9225 H            1 E64502   0.0000
    45 H7           3.3336    35.2110    20.2745 H            1 E64502   0.0000
    46 H8           2.8476    33.8516    18.4426 H            1 E64502   0.0000
    47 H9           4.1328    33.2026    19.2130 H            1 E64502   0.0000
    48 H10          5.4572    33.5539    17.4216 H            1 E64502   0.0000
    49 H13          4.8071    35.0911    14.4000 H            1 E64502   0.0000
    50 H14          5.8887    34.0847    15.3040 H            1 E64502   0.0000
    51 H11          2.8810    35.8839    15.3576 H            1 E64502   0.0000
    52 H19         -1.2385    33.7216    24.2598 H            1 E64502   0.0000
    53 H12          2.4850    35.4859    16.9961 H            1 E64502   0.0000
    54 H110        -1.0840    35.9200    25.5550 H            1 E64502    0.0000
@<TRIPOS>BOND
     1   25   51       1
     2    4   52       1
     3   22   48       1
     4   21   47       1
     5    4   54       1
     6    1    2      ar
     7    1    3      ar
     8    1    4       1
     9    4    5       1
    10    5    6       1
    11    5    7       1
    12    7    8       2
    13    7    9      am
    14    9   10       1
    15   10   11       1
    16   10   15       1
    17   11   12       1
    18   12   13       1
    19   12   14       1
    20   15   16       2
    21   15   17      am
    22   17   18       1
    23   18   19       1
    24   19   20       1
    25   20   21       1
    26   21   22       1
    27   22   23      ar
    28   23   24      ar
    29   23   25      ar
    30   25   53       1
    31   24   50       1
    32   24   49       1
    33    5   26       1
    34    6   27       1
    35    9   28       1
    36   10   29       1
    37   11   30       1
    38   11   31       1
    39   12   32       1
    40   13   33       1
    41   13   34       1
    42   13   35       1
    43   14   36       1
    44   14   37       1
    45   14   38       1
    46   17   39       1
    47   18   40       1
    48   18   41       1
    49   19   42       1
    50   19   43       1
    51   20   44       1
    52   20   45       1
    53   21   46       1
@<TRIPOS>SUBSTRUCTURE
     1 E64502      1 GROUP             4 B     E64     0 **** E64 B 502
