@<TRIPOS>MOLECULE
4zgn_ATP_1_ligand
   43    45     1     0     0
SMALL
NO_CHARGES


@<TRIPOS>ATOM
     1 PG          23.6070   133.4100   141.8390 P.3          1 ATP401   0.0000
     2 O1G         24.3240   132.3160   141.0110 O.co2        1 ATP401   0.0000
     3 O2G         23.7340   133.0560   143.3320 O.co2        1 ATP401  -1.0000
     4 O3G         24.1290   134.8080   141.5460 O.co2        1 ATP401  -1.0000
     5 PB          20.7770   133.4920   142.4700 P.3          1 ATP401   0.0000
     6 O1B         20.4990   135.0000   142.4750 O.co2        1 ATP401   0.0000
     7 O2B         21.0250   133.0280   143.8590 O.co2        1 ATP401  -1.0000
     8 O3B         22.0510   133.2570   141.5430 O.3          1 ATP401   0.0000
     9 PA          18.7370   132.6350   140.4640 P.3          1 ATP401   0.0000
    10 O1A         19.6020   132.9750   139.2350 O.co2        1 ATP401   0.0000
    11 O2A         17.5050   133.4630   140.4510 O.co2        1 ATP401  -1.0000
    12 O3A         19.5010   132.7640   141.8590 O.3          1 ATP401   0.0000
    13 O5'         18.5060   131.0590   140.4870 O.3          1 ATP401   0.0000
    14 C5'         19.5180   130.0650   140.7500 C.3          1 ATP401   0.0000
    15 C4'         19.0410   128.7970   140.0900 C.3          1 ATP401   0.0000
    16 O4'         17.7000   128.5020   140.5350 O.3          1 ATP401   0.0000
    17 C3'         18.9410   128.8470   138.5690 C.3          1 ATP401   0.0000
    18 O3'         20.1960   128.5700   137.9550 O.3          1 ATP401   0.0000
    19 C2'         17.8930   127.7720   138.2850 C.3          1 ATP401   0.0000
    20 O2'         18.4610   126.4620   138.2820 O.3          1 ATP401   0.0000
    21 C1'         16.9450   127.9400   139.4790 C.3          1 ATP401   0.0000
    22 N9          15.7680   128.7760   139.2430 N.pl3        1 ATP401   0.0000
    23 C8          15.6700   130.1380   139.3780 C.2          1 ATP401   0.0000
    24 N7          14.4560   130.6090   139.2080 N.2          1 ATP401   0.0000
    25 C5          13.7010   129.4780   138.9360 C.ar         1 ATP401   0.0000
    26 C6          12.3250   129.2930   138.6860 C.ar         1 ATP401   0.0000
    27 N6          11.4250   130.2770   138.7310 N.pl3        1 ATP401   0.0000
    28 N1          11.8960   128.0320   138.4380 N.ar         1 ATP401   0.0000
    29 C2          12.7860   127.0320   138.4650 C.ar         1 ATP401   0.0000
    30 N3          14.1010   127.0800   138.7100 N.ar         1 ATP401   0.0000
    31 C4          14.5000   128.3410   138.9400 C.ar         1 ATP401   0.0000
    32 H5'1        19.6202   129.9262   141.7350 H            1 ATP401   0.0000
    33 H5'2        20.3939   130.3503   140.3609 H            1 ATP401   0.0000
    34 H4'         19.6452   128.0448   140.3530 H            1 ATP401   0.0000
    35 H3'         18.6044   129.7417   138.2755 H            1 ATP401   0.0000
    36 H5          20.0968   128.6104   136.9608 H            1 ATP401   0.0000
    37 H2'         17.4180   127.9562   137.4245 H            1 ATP401   0.0000
    38 H7          19.1663   126.4061   137.5753 H            1 ATP401   0.0000
    39 H1'         16.6341   127.0330   139.7632 H            1 ATP401   0.0000
    40 H9          16.4548   130.7212   139.5876 H            1 ATP401   0.0000
    41 H10         10.4621   130.0828   138.5438 H            1 ATP401   0.0000
    42 H11         11.7134   131.2087   138.9519 H            1 ATP401   0.0000
    43 H12         12.4166   126.1222   138.2757 H            1 ATP401   0.0000
@<TRIPOS>BOND
     1    1    2      ar
     2    1    3      ar
     3    1    4      ar
     4    1    8       1
     5    5    6      ar
     6    5    7      ar
     7    5    8       1
     8    5   12       1
     9    9   10      ar
    10    9   11      ar
    11    9   12       1
    12    9   13       1
    13   13   14       1
    14   14   15       1
    15   15   16       1
    16   15   17       1
    17   16   21       1
    18   17   18       1
    19   17   19       1
    20   19   20       1
    21   19   21       1
    22   21   22       1
    23   22   23       1
    24   22   31       1
    25   23   24       2
    26   24   25       1
    27   25   26      ar
    28   25   31      ar
    29   26   27       1
    30   26   28      ar
    31   28   29      ar
    32   29   30      ar
    33   30   31      ar
    34   29   43       1
    35   27   42       1
    36   27   41       1
    37   23   40       1
    38   14   32       1
    39   14   33       1
    40   15   34       1
    41   17   35       1
    42   18   36       1
    43   19   37       1
    44   20   38       1
    45   21   39       1
@<TRIPOS>SUBSTRUCTURE
     1 ATP401      1 GROUP             4 A     ATP     0 **** ATP A 401
