@<TRIPOS>MOLECULE
1px2_ATP_1_ligand
   43    45     1     0     0
SMALL
NO_CHARGES


@<TRIPOS>ATOM
     1 PG           5.1520    31.0680    35.6520 P.3          1 ATP800   0.0000
     2 O1G          4.6160    29.6970    35.8730 O.co2        1 ATP800   0.0000
     3 O2G          4.8870    31.7310    34.3610 O.co2        1 ATP800  -1.0000
     4 O3G          6.6130    31.2910    35.7740 O.co2        1 ATP800  -1.0000
     5 PB           4.8120    32.2880    38.2690 P.3          1 ATP800   0.0000
     6 O1B          5.4180    33.6390    38.3100 O.co2        1 ATP800   0.0000
     7 O2B          5.5320    31.1400    38.8680 O.co2        1 ATP800  -1.0000
     8 O3B          4.4350    31.9700    36.7530 O.3          1 ATP800   0.0000
     9 PA           2.4300    31.4300    39.7380 P.3          1 ATP800   0.0000
    10 O1A          1.0150    31.8670    39.6300 O.co2        1 ATP800   0.0000
    11 O2A          2.7850    30.0110    39.4800 O.co2        1 ATP800  -1.0000
    12 O3A          3.3180    32.3930    38.8230 O.3          1 ATP800   0.0000
    13 O5'          2.9880    31.9000    41.1590 O.3          1 ATP800   0.0000
    14 C5'          4.1600    31.3140    41.7320 C.3          1 ATP800   0.0000
    15 C4'          3.8470    30.7080    43.0820 C.3          1 ATP800   0.0000
    16 O4'          3.1170    31.6540    43.9090 O.3          1 ATP800   0.0000
    17 C3'          2.9680    29.4670    43.0910 C.3          1 ATP800   0.0000
    18 O3'          3.7190    28.3010    42.7770 O.3          1 ATP800   0.0000
    19 C2'          2.4730    29.4510    44.5330 C.3          1 ATP800   0.0000
    20 O2'          3.4020    28.9000    45.4460 O.3          1 ATP800   0.0000
    21 C1'          2.2700    30.9450    44.8010 C.3          1 ATP800   0.0000
    22 N9           0.8850    31.3680    44.5800 N.pl3        1 ATP800   0.0000
    23 C8           0.2900    31.7760    43.4100 C.2          1 ATP800   0.0000
    24 N7          -0.9850    32.0510    43.5350 N.2          1 ATP800   0.0000
    25 C5          -1.2490    31.8170    44.8770 C.ar         1 ATP800   0.0000
    26 C6          -2.4240    31.9210    45.6450 C.ar         1 ATP800   0.0000
    27 N6          -3.6050    32.2950    45.1470 N.pl3        1 ATP800   0.0000
    28 N1          -2.3430    31.6220    46.9590 N.ar         1 ATP800   0.0000
    29 C2          -1.1610    31.2420    47.4570 C.ar         1 ATP800   0.0000
    30 N3           0.0080    31.1000    46.8390 N.ar         1 ATP800   0.0000
    31 C4          -0.1040    31.4070    45.5350 C.ar         1 ATP800   0.0000
    32 H5'1         4.8596    32.0198    41.8429 H            1 ATP800   0.0000
    33 H5'2         4.5016    30.5989    41.1221 H            1 ATP800   0.0000
    34 H4'          4.7094    30.4884    43.5381 H            1 ATP800   0.0000
    35 H3'          2.2020    29.5736    42.4571 H            1 ATP800   0.0000
    36 H5           3.1166    27.5029    42.7904 H            1 ATP800   0.0000
    37 H2'          1.6000    28.9671    44.5936 H            1 ATP800   0.0000
    38 H7           3.0154    28.9203    46.3680 H            1 ATP800   0.0000
    39 H1'          2.5335    31.1517    45.7433 H            1 ATP800   0.0000
    40 H9           0.7841    31.8555    42.5442 H            1 ATP800   0.0000
    41 H10         -4.4049    32.3499    45.7446 H            1 ATP800   0.0000
    42 H11         -3.6897    32.5202    44.1764 H            1 ATP800   0.0000
    43 H12         -1.1557    31.0348    48.4353 H            1 ATP800   0.0000
@<TRIPOS>BOND
     1    1    2      ar
     2    1    3      ar
     3    1    4      ar
     4    1    8       1
     5    5    6      ar
     6    5    7      ar
     7    5    8       1
     8    5   12       1
     9    9   10      ar
    10    9   11      ar
    11    9   12       1
    12    9   13       1
    13   13   14       1
    14   14   15       1
    15   15   16       1
    16   15   17       1
    17   16   21       1
    18   17   18       1
    19   17   19       1
    20   19   20       1
    21   19   21       1
    22   21   22       1
    23   22   23       1
    24   22   31       1
    25   23   24       2
    26   24   25       1
    27   25   26      ar
    28   25   31      ar
    29   26   27       1
    30   26   28      ar
    31   28   29      ar
    32   29   30      ar
    33   30   31      ar
    34   29   43       1
    35   27   42       1
    36   27   41       1
    37   23   40       1
    38   14   32       1
    39   14   33       1
    40   15   34       1
    41   17   35       1
    42   18   36       1
    43   19   37       1
    44   20   38       1
    45   21   39       1
@<TRIPOS>SUBSTRUCTURE
     1 ATP800      1 GROUP             4 A     ATP     0 **** ATP A 800
