@<TRIPOS>MOLECULE
3ids_NAD_1_ligand
   70    74     1     0     0
SMALL
NO_CHARGES


@<TRIPOS>ATOM
     1 PA           7.9290     5.8380    40.4660 P.3          1 NAD360   0.0000
     2 O1A          7.1330     4.6950    40.0010 O.co2        1 NAD360   0.0000
     3 O2A          9.3890     5.6740    40.6250 O.co2        1 NAD360  -1.0000
     4 O5B          7.4070     6.2900    41.8630 O.3          1 NAD360   0.0000
     5 C5B          6.0780     6.0080    42.3670 C.3          1 NAD360   0.0000
     6 C4B          6.2050     5.4100    43.7690 C.3          1 NAD360   0.0000
     7 O4B          4.8990     5.4710    44.4660 O.3          1 NAD360   0.0000
     8 C3B          6.6180     3.9130    43.7210 C.3          1 NAD360   0.0000
     9 O3B          7.7450     3.7020    44.6000 O.3          1 NAD360   0.0000
    10 C2B          5.3500     3.2140    44.2430 C.3          1 NAD360   0.0000
    11 O2B          5.6080     1.9890    44.9280 O.3          1 NAD360   0.0000
    12 C1B          4.8010     4.2580    45.2160 C.3          1 NAD360   0.0000
    13 N9A          3.3410     4.0670    45.4440 N.pl3        1 NAD360   0.0000
    14 C8A          2.4620     3.4600    44.6310 C.2          1 NAD360   0.0000
    15 N7A          1.2430     3.5150    45.1950 N.2          1 NAD360   0.0000
    16 C5A          1.3580     4.1600    46.3570 C.ar         1 NAD360   0.0000
    17 C6A          0.4710     4.5170    47.3600 C.ar         1 NAD360   0.0000
    18 N6A         -0.8130     4.1910    47.2510 N.pl3        1 NAD360   0.0000
    19 N1A          0.9350     5.1850    48.4400 N.ar         1 NAD360   0.0000
    20 C2A          2.2180     5.5020    48.5600 C.ar         1 NAD360   0.0000
    21 N3A          3.0860     5.1740    47.6130 N.ar         1 NAD360   0.0000
    22 C4A          2.6880     4.5100    46.5150 C.ar         1 NAD360   0.0000
    23 O3           7.5380     7.0700    39.4870 O.3          1 NAD360   0.0000
    24 PN           8.2310     8.4950    39.4230 P.3          1 NAD360   0.0000
    25 O1N          8.8330     8.8480    40.6920 O.co2        1 NAD360   0.0000
    26 O2N          9.0370     8.5270    38.1710 O.co2        1 NAD360  -1.0000
    27 O5D          7.0140     9.4970    39.1770 O.3          1 NAD360   0.0000
    28 C5D          6.1650     9.9200    40.2800 C.3          1 NAD360   0.0000
    29 C4D          5.3150    11.1300    39.8070 C.3          1 NAD360   0.0000
    30 O4D          6.2610    12.1340    39.3760 O.3          1 NAD360   0.0000
    31 C3D          4.4780    10.7650    38.5670 C.3          1 NAD360   0.0000
    32 O3D          3.2590    11.4840    38.6690 O.3          1 NAD360   0.0000
    33 C2D          5.3290    11.3200    37.4130 C.3          1 NAD360   0.0000
    34 O2D          4.5700    11.6940    36.2460 O.3          1 NAD360   0.0000
    35 C1D          5.8810    12.5870    38.0780 C.3          1 NAD360   0.0000
    36 N1N          7.1310    13.0350    37.4340 N.ar         1 NAD360   1.0000
    37 C2N          8.1400    12.1060    37.1160 C.ar         1 NAD360   0.0000
    38 C3N          9.3130    12.5310    36.5010 C.ar         1 NAD360   0.0000
    39 C7N         10.4600    11.5350    36.1530 C.2          1 NAD360   0.0000
    40 O7N         11.3460    11.8430    35.3540 O.2          1 NAD360   0.0000
    41 N7N         10.4690    10.3860    36.8240 N.am         1 NAD360   0.0000
    42 C4N          9.4520    13.8890    36.2040 C.ar         1 NAD360   0.0000
    43 C5N          8.4640    14.8150    36.5190 C.ar         1 NAD360   0.0000
    44 C6N          7.2960    14.3900    37.1310 C.ar         1 NAD360   0.0000
    45 H5B1         5.6198     5.3560    41.7628 H            1 NAD360   0.0000
    46 H5B2         5.5468     6.8542    42.4085 H            1 NAD360   0.0000
    47 H4B          6.8847     5.9260    44.2904 H            1 NAD360   0.0000
    48 H3B          6.8299     3.6264    42.7867 H            1 NAD360   0.0000
    49 H5           7.4152     3.4678    45.5145 H            1 NAD360   0.0000
    50 H2B          4.7039     3.0636    43.4947 H            1 NAD360   0.0000
    51 H7           5.7436     2.1736    45.9014 H            1 NAD360   0.0000
    52 H1B          5.3196     4.2941    46.0703 H            1 NAD360   0.0000
    53 H8A          2.6783     3.0368    43.7512 H            1 NAD360   0.0000
    54 H6A1        -1.4567     4.4465    47.9723 H            1 NAD360   0.0000
    55 H6A2        -1.1353     3.6902    46.4477 H            1 NAD360   0.0000
    56 H2A          2.5331     5.9929    49.3723 H            1 NAD360   0.0000
    57 H5D1         6.7318    10.1891    41.0587 H            1 NAD360   0.0000
    58 H5D2         5.5626     9.1689    40.5500 H            1 NAD360   0.0000
    59 H4D          4.7350    11.4741    40.5453 H            1 NAD360   0.0000
    60 H3D          4.3300     9.7792    38.4875 H            1 NAD360   0.0000
    61 H17          2.6818    11.2753    37.8795 H            1 NAD360   0.0000
    62 H2D          6.0669    10.6886    37.1746 H            1 NAD360   0.0000
    63 H19          4.7048    12.6670    36.0584 H            1 NAD360   0.0000
    64 H1D          5.1983    13.3165    38.1202 H            1 NAD360   0.0000
    65 H2N          8.0130    11.1381    37.3328 H            1 NAD360   0.0000
    66 H7N1        11.1809     9.7073    36.6437 H            1 NAD360   0.0000
    67 H7N2         9.7638    10.2012    37.5085 H            1 NAD360   0.0000
    68 H4N         10.2863    14.2041    35.7517 H            1 NAD360   0.0000
    69 H5N          8.5957    15.7829    36.3049 H            1 NAD360   0.0000
    70 H6N          6.5763    15.0474    37.3544 H            1 NAD360   0.0000
@<TRIPOS>BOND
     1    1    2      ar
     2    1    3      ar
     3    1    4       1
     4    1   23       1
     5    4    5       1
     6    5    6       1
     7    6    7       1
     8    6    8       1
     9    7   12       1
    10    8    9       1
    11    8   10       1
    12   10   11       1
    13   10   12       1
    14   12   13       1
    15   13   14       1
    16   13   22       1
    17   14   15       2
    18   15   16       1
    19   16   17      ar
    20   16   22      ar
    21   17   18       1
    22   17   19      ar
    23   19   20      ar
    24   20   21      ar
    25   21   22      ar
    26   23   24       1
    27   24   25      ar
    28   24   26      ar
    29   24   27       1
    30   27   28       1
    31   28   29       1
    32   29   30       1
    33   29   31       1
    34   30   35       1
    35   31   32       1
    36   31   33       1
    37   33   34       1
    38   33   35       1
    39   35   36       1
    40   36   37      ar
    41   36   44      ar
    42   37   38      ar
    43   38   39       1
    44   38   42      ar
    45   39   40       2
    46   39   41      am
    47   42   43      ar
    48   43   44      ar
    49   44   70       1
    50    5   45       1
    51    5   46       1
    52    6   47       1
    53    8   48       1
    54    9   49       1
    55   10   50       1
    56   11   51       1
    57   12   52       1
    58   14   53       1
    59   18   54       1
    60   18   55       1
    61   20   56       1
    62   43   69       1
    63   28   57       1
    64   28   58       1
    65   29   59       1
    66   31   60       1
    67   32   61       1
    68   33   62       1
    69   34   63       1
    70   35   64       1
    71   37   65       1
    72   41   66       1
    73   41   67       1
    74   42   68       1
@<TRIPOS>SUBSTRUCTURE
     1 NAD360      1 GROUP             4 D     NAD     0 **** NAD D 360
