@<TRIPOS>MOLECULE
3mte_SAM_1_ligand
   50    52     1     0     0
SMALL
NO_CHARGES


@<TRIPOS>ATOM
     1 N           32.3760    16.6490    24.5690 N.4          1 SAM220   1.0000
     2 CA          32.2910    15.3280    23.9530 C.3          1 SAM220   0.0000
     3 C           33.6680    14.8280    23.5390 C.2          1 SAM220   0.0000
     4 OXT         34.6150    15.6100    23.4480 O.2          1 SAM220   0.0000
     5 CB          31.3820    15.3480    22.7210 C.3          1 SAM220   0.0000
     6 CG          30.6780    14.0150    22.5110 C.3          1 SAM220   0.0000
     7 SD          29.4210    14.0770    21.2060 S.3          1 SAM220   1.0000
     8 CE          30.3670    14.7660    19.8350 C.3          1 SAM220   0.0000
     9 C5'         28.3930    15.4970    21.6370 C.3          1 SAM220   0.0000
    10 C4'         27.6400    15.3220    22.9650 C.3          1 SAM220   0.0000
    11 O4'         26.7830    16.4340    23.1180 O.3          1 SAM220   0.0000
    12 C3'         26.7680    14.0760    23.0400 C.3          1 SAM220   0.0000
    13 O3'         27.0730    13.3480    24.2030 O.3          1 SAM220   0.0000
    14 C2'         25.3510    14.5900    23.2200 C.3          1 SAM220   0.0000
    15 O2'         24.5580    13.7640    24.0580 O.3          1 SAM220   0.0000
    16 C1'         25.6000    15.9920    23.7660 C.3          1 SAM220   0.0000
    17 N9          24.4640    16.8720    23.4440 N.pl3        1 SAM220   0.0000
    18 C8          23.7490    16.9280    22.2740 C.2          1 SAM220   0.0000
    19 N7          22.7860    17.8710    22.4220 N.2          1 SAM220   0.0000
    20 C5          22.8860    18.4030    23.6600 C.ar         1 SAM220   0.0000
    21 C6          22.1630    19.3760    24.3340 C.ar         1 SAM220   0.0000
    22 N6          21.1380    19.9880    23.7370 N.pl3        1 SAM220   0.0000
    23 N1          22.5270    19.7100    25.6150 N.ar         1 SAM220   0.0000
    24 C2          23.5790    19.0810    26.2550 C.ar         1 SAM220   0.0000
    25 N3          24.2890    18.1110    25.5780 N.ar         1 SAM220   0.0000
    26 C4          23.9390    17.7830    24.3120 C.ar         1 SAM220   0.0000
    27 H1          31.4605    16.9540    24.8313 H            1 SAM220   0.0000
    28 H2          32.9569    16.6011    25.3816 H            1 SAM220   0.0000
    29 HA          31.9081    14.6896    24.6207 H            1 SAM220   0.0000
    30 H4          33.8045    13.8577    23.3395 H            1 SAM220   0.0000
    31 HB1         31.9364    15.5511    21.9139 H            1 SAM220   0.0000
    32 HB2         30.6923    16.0623    22.8401 H            1 SAM220   0.0000
    33 HG1         30.2355    13.7497    23.3676 H            1 SAM220   0.0000
    34 HG2         31.3618    13.3289    22.2627 H            1 SAM220   0.0000
    35 HE1         29.7760    14.8540    19.0332 H            1 SAM220   0.0000
    36 HE2         30.7175    15.6668    20.0913 H            1 SAM220   0.0000
    37 HE3         31.1324    14.1594    19.6200 H            1 SAM220   0.0000
    38 H5'1        27.7227    15.6364    20.9081 H            1 SAM220   0.0000
    39 H5'2        28.9799    16.3035    21.7089 H            1 SAM220   0.0000
    40 H4'         28.2987    15.3083    23.7173 H            1 SAM220   0.0000
    41 H3'         26.8556    13.5134    22.2180 H            1 SAM220   0.0000
    42 H16         26.9037    13.9180    25.0070 H            1 SAM220   0.0000
    43 H2'         24.9134    14.6617    22.3237 H            1 SAM220   0.0000
    44 H18         24.9765    13.7094    24.9646 H            1 SAM220   0.0000
    45 H1'         25.7405    15.9574    24.7555 H            1 SAM220   0.0000
    46 H20         23.9095    16.3726    21.4581 H            1 SAM220   0.0000
    47 H21         20.6198    20.6889    24.2272 H            1 SAM220   0.0000
    48 H22         20.8882    19.7456    22.7995 H            1 SAM220   0.0000
    49 H23         23.8214    19.3254    27.1939 H            1 SAM220   0.0000
    50 H24         32.7688    17.2966    23.9161 H            1 SAM220   0.0000
@<TRIPOS>BOND
     1    1    2       1
     2    2    3       1
     3    2    5       1
     4    3    4       2
     5    5    6       1
     6    6    7       1
     7    7    8       1
     8    7    9       1
     9    9   10       1
    10   10   11       1
    11   10   12       1
    12   11   16       1
    13   12   13       1
    14   12   14       1
    15   14   15       1
    16   14   16       1
    17   16   17       1
    18   17   18       1
    19   17   26       1
    20   18   19       2
    21   19   20       1
    22   20   21      ar
    23   20   26      ar
    24   21   22       1
    25   21   23      ar
    26   23   24      ar
    27   24   25      ar
    28   25   26      ar
    29    1   27       1
    30    1   28       1
    31    2   29       1
    32    3   30       1
    33    5   31       1
    34    5   32       1
    35    6   33       1
    36    6   34       1
    37    8   35       1
    38    8   36       1
    39    8   37       1
    40    9   38       1
    41    9   39       1
    42   10   40       1
    43   12   41       1
    44   13   42       1
    45   14   43       1
    46   15   44       1
    47   16   45       1
    48   18   46       1
    49   22   47       1
    50   22   48       1
    51   24   49       1
    52    1   50       1
@<TRIPOS>SUBSTRUCTURE
     1 SAM220      1 GROUP             4 A     SAM     0 **** SAM A 220
