@<TRIPOS>MOLECULE
4xoo_FMN_3_ligand
   50    52     1     0     0
SMALL
NO_CHARGES


@<TRIPOS>ATOM
     1 N1          48.6310     9.0230    14.2850 N.2          1 FMN501   0.0000
     2 C2          49.8330     9.3080    13.7430 C.2          1 FMN501   0.0000
     3 O2          50.7340     8.4450    13.8520 O.2          1 FMN501   0.0000
     4 N3          50.0870    10.4750    13.1140 N.pl3        1 FMN501   0.0000
     5 C4          49.1350    11.4240    12.9810 C.2          1 FMN501   0.0000
     6 O4          49.3320    12.5090    12.3910 O.2          1 FMN501   0.0000
     7 C4A         47.7930    11.1790    13.5240 C.2          1 FMN501   0.0000
     8 N5          46.8170    12.1010    13.3810 N.2          1 FMN501   0.0000
     9 C5A         45.5970    11.8310    13.8880 C.ar         1 FMN501   0.0000
    10 C6          44.6240    12.7810    13.7160 C.ar         1 FMN501   0.0000
    11 C7          43.3360    12.5680    14.1960 C.ar         1 FMN501   0.0000
    12 C7M         42.3020    13.6480    13.9600 C.3          1 FMN501   0.0000
    13 C8          43.0130    11.2980    14.9100 C.ar         1 FMN501   0.0000
    14 C8M         41.6270    11.0290    15.4370 C.3          1 FMN501   0.0000
    15 C9          43.9960    10.3180    15.0780 C.ar         1 FMN501   0.0000
    16 C9A         45.2870    10.5240    14.5810 C.ar         1 FMN501   0.0000
    17 N10         46.3160     9.5540    14.7480 N.pl3        1 FMN501   0.0000
    18 C10         47.5820     9.8730    14.2060 C.2          1 FMN501   0.0000
    19 C1'         46.0880     8.2520    15.3830 C.3          1 FMN501   0.0000
    20 C2'         46.0840     8.3640    16.8950 C.3          1 FMN501   0.0000
    21 O2'         47.3960     8.7270    17.3680 O.3          1 FMN501   0.0000
    22 C3'         45.5900     7.0470    17.5270 C.3          1 FMN501   0.0000
    23 O3'         44.1870     6.9230    17.3440 O.3          1 FMN501   0.0000
    24 C4'         45.9530     6.9390    19.0320 C.3          1 FMN501   0.0000
    25 O4'         47.3740     6.7940    19.0190 O.3          1 FMN501   0.0000
    26 C5'         45.2910     5.8200    19.8790 C.3          1 FMN501   0.0000
    27 O5'         45.4440     4.5160    19.2590 O.3          1 FMN501   0.0000
    28 P           44.1510     3.7730    18.6250 P.3          1 FMN501   0.0000
    29 O1P         43.6150     4.6350    17.4940 O.co2        1 FMN501   0.0000
    30 O2P         44.6710     2.4670    18.0880 O.co2        1 FMN501  -1.0000
    31 O3P         43.1630     3.6990    19.7330 O.co2        1 FMN501  -1.0000
    32 H1          50.9990    10.6404    12.7386 H            1 FMN501   0.0000
    33 H2          44.8419    13.6340    13.2417 H            1 FMN501   0.0000
    34 H7M1        41.4280    13.3646    14.3547 H            1 FMN501   0.0000
    35 H7M2        42.6031    14.4979    14.3924 H            1 FMN501   0.0000
    36 H7M3        42.1919    13.7949    12.9770 H            1 FMN501   0.0000
    37 H8M1        41.6073    10.1333    15.8812 H            1 FMN501   0.0000
    38 H8M2        41.3796    11.7354    16.1001 H            1 FMN501   0.0000
    39 H8M3        40.9744    11.0398    14.6794 H            1 FMN501   0.0000
    40 H9          43.7753     9.4672    15.5550 H            1 FMN501   0.0000
    41 H1'1        46.8147     7.6236    15.1057 H            1 FMN501   0.0000
    42 H1'2        45.2044     7.8937    15.0814 H            1 FMN501   0.0000
    43 H2'         45.4476     9.0912    17.1521 H            1 FMN501   0.0000
    44 H13         47.7385     8.0145    17.9804 H            1 FMN501   0.0000
    45 H3'         46.0323     6.2892    17.0474 H            1 FMN501   0.0000
    46 H15         43.8715     6.0679    17.7553 H            1 FMN501   0.0000
    47 H4'         45.7387     7.8159    19.4623 H            1 FMN501   0.0000
    48 H17         47.6611     6.2530    19.8095 H            1 FMN501   0.0000
    49 H5'1        44.3161     6.0205    19.9758 H            1 FMN501   0.0000
    50 H5'2        45.7188     5.8014    20.7827 H            1 FMN501   0.0000
@<TRIPOS>BOND
     1    1    2       1
     2    1   18       2
     3    2    3       2
     4    2    4       1
     5    4    5       1
     6    5    6       2
     7    5    7       1
     8    7    8       2
     9    7   18       1
    10    8    9       1
    11    9   10      ar
    12    9   16      ar
    13   10   11      ar
    14   11   12       1
    15   11   13      ar
    16   13   14       1
    17   13   15      ar
    18   15   16      ar
    19   16   17       1
    20   17   18       1
    21   17   19       1
    22   19   20       1
    23   20   21       1
    24   20   22       1
    25   22   23       1
    26   22   24       1
    27   24   25       1
    28   24   26       1
    29   26   27       1
    30   27   28       1
    31   28   29      ar
    32   28   30      ar
    33   28   31      ar
    34    4   32       1
    35   10   33       1
    36   12   34       1
    37   12   35       1
    38   12   36       1
    39   14   37       1
    40   14   38       1
    41   14   39       1
    42   15   40       1
    43   19   41       1
    44   19   42       1
    45   20   43       1
    46   21   44       1
    47   22   45       1
    48   23   46       1
    49   24   47       1
    50   25   48       1
    51   26   49       1
    52   26   50       1
@<TRIPOS>SUBSTRUCTURE
     1 FMN501      1 GROUP             4 C     FMN     0 **** FMN C 501
