@<TRIPOS>MOLECULE
2hai_PFI_1_ligand
   53    55     1     0     0
SMALL
NO_CHARGES


@<TRIPOS>ATOM
     1 F26         39.1110    11.5860    60.6420 F            1 PFI601   0.0000
     2 C23         40.2650    11.9050    60.0460 C.ar         1 PFI601   0.0000
     3 C22         41.4800    11.3840    60.5740 C.ar         1 PFI601   0.0000
     4 O24         41.4390    10.5910    61.6780 O.3          1 PFI601   0.0000
     5 C25         42.0300    11.0530    62.8990 C.3          1 PFI601   0.0000
     6 C2          41.2620    12.2940    63.4310 C.3          1 PFI601   0.0000
     7 C1          42.0010     9.9160    63.9060 C.3          1 PFI601   0.0000
     8 C21         42.7100    11.7240    59.9480 C.ar         1 PFI601   0.0000
     9 C20         42.7740    12.5580    58.8210 C.ar         1 PFI601   0.0000
    10 C19         41.5580    13.0580    58.2960 C.ar         1 PFI601   0.0000
    11 C18         40.3320    12.7240    58.9270 C.ar         1 PFI601   0.0000
    12 C12         41.5920    13.9510    57.0900 C.3          1 PFI601   0.0000
    13 C11         41.1920    13.1240    55.8090 C.3          1 PFI601   0.0000
    14 C5          40.9750    13.9630    54.5430 C.3          1 PFI601   0.0000
    15 C6          42.1770    14.8980    54.1930 C.3          1 PFI601   0.0000
    16 C17         39.7950    14.9540    54.6850 C.3          1 PFI601   0.0000
    17 C13         38.4350    14.3430    55.1080 C.3          1 PFI601   0.0000
    18 C16         39.4140    15.6830    53.3670 C.3          1 PFI601   0.0000
    19 C15         38.1600    16.4720    53.8180 C.3          1 PFI601   0.0000
    20 C14         37.4910    15.4880    54.7950 C.3          1 PFI601   0.0000
    21 O4          40.6560    13.1010    53.3910 O.3          1 PFI601   0.0000
    22 C3          41.6990    12.3680    52.8820 C.2          1 PFI601   0.0000
    23 O10         41.5120    11.2790    52.3380 O.2          1 PFI601   0.0000
    24 C8          43.0780    12.9270    53.0080 C.2          1 PFI601   0.0000
    25 C7          43.3370    14.0930    53.7090 C.2          1 PFI601   0.0000
    26 O9          44.6150    14.5000    53.9750 O.3          1 PFI601   0.0000
    27 H1          42.9808    11.3088    62.7241 H            1 PFI601   0.0000
    28 H2          41.6831    12.6069    64.2823 H            1 PFI601   0.0000
    29 H3          41.3004    13.0264    62.7512 H            1 PFI601   0.0000
    30 H4          40.3080    12.0476    63.6019 H            1 PFI601   0.0000
    31 H5          42.4104    10.2216    64.7657 H            1 PFI601   0.0000
    32 H6          41.0541     9.6382    64.0679 H            1 PFI601   0.0000
    33 H7          42.5194     9.1397    63.5473 H            1 PFI601   0.0000
    34 H8          43.5603    11.3557    60.3241 H            1 PFI601   0.0000
    35 H9          43.6513    12.7918    58.4018 H            1 PFI601   0.0000
    36 H10         39.4822    13.0932    58.5507 H            1 PFI601   0.0000
    37 H11         42.5146    14.3189    56.9741 H            1 PFI601   0.0000
    38 H12         40.9461    14.7041    57.2151 H            1 PFI601   0.0000
    39 H13         40.3427    12.6348    56.0073 H            1 PFI601   0.0000
    40 H14         41.9210    12.4649    55.6242 H            1 PFI601   0.0000
    41 H15         42.4472    15.4075    55.0100 H            1 PFI601   0.0000
    42 H16         41.8988    15.5387    53.4774 H            1 PFI601   0.0000
    43 H17         40.0491    15.6457    55.3610 H            1 PFI601   0.0000
    44 H18         38.4229    14.1130    56.0811 H            1 PFI601   0.0000
    45 H19         38.2154    13.5290    54.5703 H            1 PFI601   0.0000
    46 H20         39.1970    15.0340    52.6378 H            1 PFI601   0.0000
    47 H21         40.1433    16.2955    53.0620 H            1 PFI601   0.0000
    48 H22         37.5620    16.6764    53.0430 H            1 PFI601   0.0000
    49 H23         38.4131    17.3234    54.2774 H            1 PFI601   0.0000
    50 H24         37.2604    15.9676    55.6416 H            1 PFI601   0.0000
    51 H25         36.6568    15.1251    54.3797 H            1 PFI601   0.0000
    52 H26         43.8380    12.4444    52.5727 H            1 PFI601   0.0000
    53 H27         45.3902    13.9586    53.6494 H            1 PFI601   0.0000
@<TRIPOS>BOND
     1    1    2       1
     2    2    3      ar
     3    2   11      ar
     4    3    4       1
     5    3    8      ar
     6    4    5       1
     7    5    6       1
     8    5    7       1
     9    8    9      ar
    10    9   10      ar
    11   10   11      ar
    12   10   12       1
    13   12   13       1
    14   13   14       1
    15   14   15       1
    16   14   16       1
    17   14   21       1
    18   15   25       1
    19   16   17       1
    20   16   18       1
    21   17   20       1
    22   18   19       1
    23   19   20       1
    24   21   22       1
    25   22   23       2
    26   22   24       1
    27   24   25       2
    28   25   26       1
    29    5   27       1
    30    6   28       1
    31    6   29       1
    32    6   30       1
    33    7   31       1
    34    7   32       1
    35    7   33       1
    36    8   34       1
    37    9   35       1
    38   11   36       1
    39   12   37       1
    40   12   38       1
    41   13   39       1
    42   13   40       1
    43   15   41       1
    44   15   42       1
    45   16   43       1
    46   17   44       1
    47   17   45       1
    48   18   46       1
    49   18   47       1
    50   19   48       1
    51   19   49       1
    52   20   50       1
    53   20   51       1
    54   24   52       1
    55   26   53       1
@<TRIPOS>SUBSTRUCTURE
     1 PFI601      1 GROUP             4 A     PFI     0 **** PFI A 601
