@<TRIPOS>MOLECULE
3qzy_IMD_1_ligand
    9     9     1     0     0
SMALL
NO_CHARGES


@<TRIPOS>ATOM
     1 N1          16.5760    -9.7750   -24.9060 N.pl3        1 IMD261   0.0000
     2 C2          17.0460    -9.1290   -25.9560 C.2          1 IMD261   0.0000
     3 N3          16.0640    -8.9640   -26.8310 N.2          1 IMD261   0.0000
     4 C4          14.9460    -9.5200   -26.3230 C.2          1 IMD261   0.0000
     5 C5          15.2660   -10.0280   -25.1190 C.2          1 IMD261   0.0000
     6 H1          17.0987   -10.0327   -24.0934 H            1 IMD261   0.0000
     7 H2          17.9883    -8.8153   -26.0726 H            1 IMD261   0.0000
     8 H3          14.0468    -9.5494   -26.7595 H            1 IMD261   0.0000
     9 H4          14.6471   -10.5057   -24.4955 H            1 IMD261   0.0000
@<TRIPOS>BOND
     1    1    2       1
     2    1    5       1
     3    2    3       2
     4    3    4       1
     5    4    5       2
     6    1    6       1
     7    2    7       1
     8    4    8       1
     9    5    9       1
@<TRIPOS>SUBSTRUCTURE
     1 IMD261      1 GROUP             4 A     IMD     0 **** IMD A 261
