@<TRIPOS>MOLECULE
1n06_ADP_1_ligand
   39    41     1     0     0
SMALL
NO_CHARGES


@<TRIPOS>ATOM
     1 PB           1.9280     5.8000   -14.9630 P.3          1 ADP201   0.0000
     2 O1B          2.7540     5.2440   -13.8520 O.co2        1 ADP201   0.0000
     3 O2B          1.1200     6.9390   -14.4240 O.co2        1 ADP201  -1.0000
     4 O3B          2.8930     6.3200   -16.1390 O.co2        1 ADP201  -1.0000
     5 PA           1.5630     3.2560   -15.8340 P.3          1 ADP201   0.0000
     6 O1A          2.9480     3.2030   -16.3780 O.co2        1 ADP201   0.0000
     7 O2A          0.6750     2.5540   -16.7950 O.co2        1 ADP201  -1.0000
     8 O3A          0.9080     4.7300   -15.6090 O.3          1 ADP201   0.0000
     9 O5'          1.5370     2.4850   -14.4200 O.3          1 ADP201   0.0000
    10 C5'          0.4290     2.5990   -13.5020 C.3          1 ADP201   0.0000
    11 C4'         -0.6090     1.4710   -13.7560 C.3          1 ADP201   0.0000
    12 O4'         -0.0810     0.1610   -13.5470 O.3          1 ADP201   0.0000
    13 C3'         -1.8110     1.5140   -12.7990 C.3          1 ADP201   0.0000
    14 O3'         -2.7420     2.5520   -13.1340 O.3          1 ADP201   0.0000
    15 C2'         -2.3660     0.0980   -12.8810 C.3          1 ADP201   0.0000
    16 O2'         -3.4830     0.0600   -13.7990 O.3          1 ADP201   0.0000
    17 C1'         -1.1700    -0.7500   -13.3720 C.3          1 ADP201   0.0000
    18 N9          -0.6730    -1.7680   -12.4470 N.pl3        1 ADP201   0.0000
    19 C8          -0.3530    -2.9970   -12.7530 C.2          1 ADP201   0.0000
    20 N7           0.0700    -3.6570   -11.7530 N.2          1 ADP201   0.0000
    21 C5           0.0550    -2.8740   -10.6550 C.ar         1 ADP201   0.0000
    22 C6           0.4120    -3.0440    -9.3050 C.ar         1 ADP201   0.0000
    23 N6           0.8860    -4.1950    -8.8210 N.pl3        1 ADP201   0.0000
    24 N1           0.2480    -1.9710    -8.4720 N.ar         1 ADP201   0.0000
    25 C2          -0.2310    -0.7620    -8.9130 C.ar         1 ADP201   0.0000
    26 N3          -0.5700    -0.5840   -10.2200 N.ar         1 ADP201   0.0000
    27 C4          -0.4290    -1.6280   -11.0920 C.ar         1 ADP201   0.0000
    28 H5'1        -0.0129     3.4871   -13.6287 H            1 ADP201   0.0000
    29 H5'2         0.7699     2.5271   -12.5647 H            1 ADP201   0.0000
    30 H4'         -0.9406     1.5410   -14.6968 H            1 ADP201   0.0000
    31 H3'         -1.4752     1.6728   -11.8705 H            1 ADP201   0.0000
    32 H5          -3.6633     2.2739   -12.8622 H            1 ADP201   0.0000
    33 H2'         -2.6559    -0.2099   -11.9748 H            1 ADP201   0.0000
    34 H7          -3.1503    -0.1389   -14.7208 H            1 ADP201   0.0000
    35 H1'         -1.3968    -1.1747   -14.2485 H            1 ADP201   0.0000
    36 H9          -0.4323    -3.3772   -13.6745 H            1 ADP201   0.0000
    37 H10          1.1268    -4.2691    -7.8532 H            1 ADP201   0.0000
    38 H11          1.0002    -4.9827    -9.4264 H            1 ADP201   0.0000
    39 H12         -0.3319    -0.0046    -8.2679 H            1 ADP201   0.0000
@<TRIPOS>BOND
     1    1    2      ar
     2    1    3      ar
     3    1    4      ar
     4    1    8       1
     5    5    6      ar
     6    5    7      ar
     7    5    8       1
     8    5    9       1
     9    9   10       1
    10   10   11       1
    11   11   12       1
    12   11   13       1
    13   12   17       1
    14   13   14       1
    15   13   15       1
    16   15   16       1
    17   15   17       1
    18   17   18       1
    19   18   19       1
    20   18   27       1
    21   19   20       2
    22   20   21       1
    23   21   22      ar
    24   21   27      ar
    25   22   23       1
    26   22   24      ar
    27   24   25      ar
    28   25   26      ar
    29   26   27      ar
    30   25   39       1
    31   23   38       1
    32   23   37       1
    33   10   28       1
    34   10   29       1
    35   11   30       1
    36   13   31       1
    37   14   32       1
    38   15   33       1
    39   16   34       1
    40   17   35       1
    41   19   36       1
@<TRIPOS>SUBSTRUCTURE
     1 ADP201      1 GROUP             4 A     ADP     0 **** ADP A 201
