@<TRIPOS>MOLECULE
1yqx_NAP_2_ligand
   73    77     1     0     0
SMALL
NO_CHARGES


@<TRIPOS>ATOM
     1 PA          48.2200    90.8060     4.1700 P.3          1 NAP600   0.0000
     2 O1A         46.8420    90.9760     4.1090 O.co2        1 NAP600   0.0000
     3 O2A         48.9790    89.6330     3.6400 O.co2        1 NAP600  -1.0000
     4 O5B         48.7950    90.9200     5.6600 O.3          1 NAP600   0.0000
     5 C5B         48.2630    91.9630     6.4900 C.3          1 NAP600   0.0000
     6 C4B         48.5280    91.2810     7.8360 C.3          1 NAP600   0.0000
     7 O4B         47.9230    92.2640     9.0140 O.3          1 NAP600   0.0000
     8 C3B         47.2140    90.2880     8.2370 C.3          1 NAP600   0.0000
     9 O3B         47.9490    88.9580     8.1560 O.3          1 NAP600   0.0000
    10 C2B         46.9160    90.3390     9.6670 C.3          1 NAP600   0.0000
    11 O2B         47.9720    89.8950    10.4840 O.3          1 NAP600   0.0000
    12 C1B         47.0360    91.9330     9.8280 C.3          1 NAP600   0.0000
    13 N9A         45.7000    92.5380     9.7600 N.pl3        1 NAP600   0.0000
    14 C8A         44.7400    92.5510     8.7390 C.2          1 NAP600   0.0000
    15 N7A         43.6270    93.2290     9.0820 N.2          1 NAP600   0.0000
    16 C5A         43.8990    93.6760    10.4050 C.ar         1 NAP600   0.0000
    17 C6A         43.1020    94.4610    11.3480 C.ar         1 NAP600   0.0000
    18 N6A         41.8500    94.9630    11.1550 N.pl3        1 NAP600   0.0000
    19 N1A         43.6800    94.7500    12.6340 N.ar         1 NAP600   0.0000
    20 C2A         44.9880    94.2840    12.9730 C.ar         1 NAP600   0.0000
    21 N3A         45.7760    93.5200    12.0810 N.ar         1 NAP600   0.0000
    22 C4A         45.1900    93.2400    10.8070 C.ar         1 NAP600   0.0000
    23 O3          48.9100    92.0650     3.4790 O.3          1 NAP600   0.0000
    24 PN          50.4230    92.2190     2.9790 P.3          1 NAP600   0.0000
    25 O1N         51.5100    92.2850     3.9230 O.co2        1 NAP600   0.0000
    26 O2N         50.5470    92.3660     1.5320 O.co2        1 NAP600  -1.0000
    27 O5D         50.2340    93.8460     3.0420 O.3          1 NAP600   0.0000
    28 C5D         50.0160    94.6050     4.2990 C.3          1 NAP600   0.0000
    29 C4D         49.8360    96.1070     4.0620 C.3          1 NAP600   0.0000
    30 O4D         51.0380    96.7970     3.6210 O.3          1 NAP600   0.0000
    31 C3D         48.7500    96.5610     3.0100 C.3          1 NAP600   0.0000
    32 O3D         47.9940    97.6850     3.5500 O.3          1 NAP600   0.0000
    33 C2D         49.5590    96.9510     1.8070 C.3          1 NAP600   0.0000
    34 O2D         48.8250    97.7840     0.9210 O.3          1 NAP600   0.0000
    35 C1D         50.7010    97.6160     2.4450 C.3          1 NAP600   0.0000
    36 N1N         51.9900    97.7200     1.7110 N.ar         1 NAP600   1.0000
    37 C2N         52.8020    98.8820     1.8450 C.ar         1 NAP600   0.0000
    38 C3N         54.0170    98.9550     1.1540 C.ar         1 NAP600   0.0000
    39 C7N         54.8690   100.2170     1.3100 C.2          1 NAP600   0.0000
    40 O7N         55.9150   100.2630     0.6900 O.2          1 NAP600   0.0000
    41 N7N         54.4670   101.1870     2.0760 N.am         1 NAP600   0.0000
    42 C4N         54.4730    97.8550     0.2930 C.ar         1 NAP600   0.0000
    43 C5N         53.6200    96.6960     0.1890 C.ar         1 NAP600   0.0000
    44 C6N         52.3680    96.6070     0.8930 C.ar         1 NAP600   0.0000
    45 P2B         47.6210    89.0760    11.9310 P.3          1 NAP600   0.0000
    46 O1X         49.0220    88.7460    12.4870 O.co2        1 NAP600   0.0000
    47 O2X         46.8580    90.0910    12.7280 O.co2        1 NAP600  -1.0000
    48 O3X         46.8580    87.8220    11.5250 O.co2        1 NAP600  -1.0000
    49 H5B1        47.2894    92.1230     6.3270 H            1 NAP600   0.0000
    50 H5B2        48.7632    92.8233     6.3916 H            1 NAP600   0.0000
    51 H4B         49.4431    90.9054     7.9829 H            1 NAP600   0.0000
    52 H3B         46.4199    90.3713     7.6349 H            1 NAP600   0.0000
    53 H5          48.3361    88.7360     9.0509 H            1 NAP600   0.0000
    54 H2B         46.0211    89.9672     9.9138 H            1 NAP600   0.0000
    55 H1B         47.3946    92.1112    10.7443 H            1 NAP600   0.0000
    56 H8A         44.8671    92.1057     7.8527 H            1 NAP600   0.0000
    57 H6A1        41.4046    95.4882    11.8801 H            1 NAP600   0.0000
    58 H6A2        41.3766    94.8062    10.2882 H            1 NAP600   0.0000
    59 H2A         45.3598    94.5064    13.8743 H            1 NAP600   0.0000
    60 H5D1        50.8066    94.4683     4.8959 H            1 NAP600   0.0000
    61 H5D2        49.1949    94.2517     4.7472 H            1 NAP600   0.0000
    62 H4D         49.5759    96.5099     4.9395 H            1 NAP600   0.0000
    63 H3D         48.1380    95.8016     2.7889 H            1 NAP600   0.0000
    64 H16         47.3055    97.9739     2.8848 H            1 NAP600   0.0000
    65 H2D         49.8686    96.1313     1.3251 H            1 NAP600   0.0000
    66 H18         49.1406    97.6340    -0.0159 H            1 NAP600   0.0000
    67 H1D         50.4222    98.5270     2.7488 H            1 NAP600   0.0000
    68 H2N         52.5068    99.6392     2.4277 H            1 NAP600   0.0000
    69 H7N1        55.0262   102.0100     2.1756 H            1 NAP600   0.0000
    70 H7N2        53.5985   101.1103     2.5658 H            1 NAP600   0.0000
    71 H4N         55.3406    97.9076    -0.2015 H            1 NAP600   0.0000
    72 H5N         53.9072    95.9323    -0.3891 H            1 NAP600   0.0000
    73 H6N         51.7843    95.7989     0.8140 H            1 NAP600   0.0000
@<TRIPOS>BOND
     1    1    2      ar
     2    1    3      ar
     3    1    4       1
     4    1   23       1
     5    4    5       1
     6    5    6       1
     7    6    7       1
     8    6    8       1
     9    7   12       1
    10    8    9       1
    11    8   10       1
    12   10   11       1
    13   10   12       1
    14   11   45       1
    15   12   13       1
    16   13   14       1
    17   13   22       1
    18   14   15       2
    19   15   16       1
    20   16   17      ar
    21   16   22      ar
    22   17   18       1
    23   17   19      ar
    24   19   20      ar
    25   20   21      ar
    26   21   22      ar
    27   23   24       1
    28   24   25      ar
    29   24   26      ar
    30   24   27       1
    31   27   28       1
    32   28   29       1
    33   29   30       1
    34   29   31       1
    35   30   35       1
    36   31   32       1
    37   31   33       1
    38   33   34       1
    39   33   35       1
    40   35   36       1
    41   36   37      ar
    42   36   44      ar
    43   37   38      ar
    44   38   39       1
    45   38   42      ar
    46   39   40       2
    47   39   41      am
    48   42   43      ar
    49   43   44      ar
    50   45   46      ar
    51   45   47      ar
    52   45   48      ar
    53   43   72       1
    54    5   49       1
    55    5   50       1
    56    6   51       1
    57    8   52       1
    58    9   53       1
    59   10   54       1
    60   12   55       1
    61   14   56       1
    62   18   57       1
    63   18   58       1
    64   20   59       1
    65   44   73       1
    66   28   60       1
    67   28   61       1
    68   29   62       1
    69   31   63       1
    70   32   64       1
    71   33   65       1
    72   34   66       1
    73   35   67       1
    74   37   68       1
    75   41   69       1
    76   41   70       1
    77   42   71       1
@<TRIPOS>SUBSTRUCTURE
     1 NAP600      1 GROUP             4 B     NAP     0 **** NAP B 600
