@<TRIPOS>MOLECULE
2qcu_FAD_3_ligand
   84    89     1     0     0
SMALL
NO_CHARGES


@<TRIPOS>ATOM
     1 PA          34.6830    37.2140   -26.9170 P.3          1 FAD600   0.0000
     2 O1A         33.4300    36.4250   -27.2110 O.co2        1 FAD600   0.0000
     3 O2A         34.8090    37.5070   -25.4410 O.co2        1 FAD600  -1.0000
     4 O5B         34.6820    38.5740   -27.7780 O.3          1 FAD600   0.0000
     5 C5B         35.1800    39.7720   -27.2250 C.3          1 FAD600   0.0000
     6 C4B         34.1820    40.3150   -26.2090 C.3          1 FAD600   0.0000
     7 O4B         34.7120    41.4780   -25.6020 O.3          1 FAD600   0.0000
     8 C3B         32.8690    40.6920   -26.8810 C.3          1 FAD600   0.0000
     9 O3B         31.8150    39.9610   -26.2970 O.3          1 FAD600   0.0000
    10 C2B         32.6720    42.1720   -26.6060 C.3          1 FAD600   0.0000
    11 O2B         31.4250    42.6940   -26.5150 O.3          1 FAD600   0.0000
    12 C1B         33.8760    42.6060   -25.7820 C.3          1 FAD600   0.0000
    13 N9A         34.6150    43.6570   -26.5060 N.pl3        1 FAD600   0.0000
    14 C8A         35.0840    43.5790   -27.7910 C.2          1 FAD600   0.0000
    15 N7A         35.7060    44.7410   -28.0940 N.2          1 FAD600   0.0000
    16 C5A         35.6410    45.5600   -27.0210 C.ar         1 FAD600   0.0000
    17 C6A         36.1120    46.8480   -26.7990 C.ar         1 FAD600   0.0000
    18 N6A         36.6210    47.5520   -27.8060 N.pl3        1 FAD600   0.0000
    19 N1A         35.8940    47.4500   -25.5770 N.ar         1 FAD600   0.0000
    20 C2A         35.2130    46.7710   -24.5880 C.ar         1 FAD600   0.0000
    21 N3A         34.7480    45.4910   -24.8160 N.ar         1 FAD600   0.0000
    22 C4A         34.9570    44.8920   -26.0140 C.ar         1 FAD600   0.0000
    23 N1          35.0240    26.2980   -28.0390 N.2          1 FAD600   0.0000
    24 C2          34.9980    25.1600   -27.2570 C.2          1 FAD600   0.0000
    25 O2          35.8270    25.0130   -26.3610 O.2          1 FAD600   0.0000
    26 N3          34.0440    24.1870   -27.4790 N.pl3        1 FAD600   0.0000
    27 C4          33.1110    24.3470   -28.4830 C.2          1 FAD600   0.0000
    28 O4          32.2180    23.5150   -28.6320 O.2          1 FAD600   0.0000
    29 C4X         33.1340    25.4910   -29.2730 C.2          1 FAD600   0.0000
    30 N5          32.2050    25.6570   -30.2790 N.2          1 FAD600   0.0000
    31 C5X         32.2310    26.7940   -31.0600 C.ar         1 FAD600   0.0000
    32 C6          31.2950    26.9630   -32.0740 C.ar         1 FAD600   0.0000
    33 C7          31.3210    28.1080   -32.8610 C.ar         1 FAD600   0.0000
    34 C7M         30.3540    28.2580   -33.9980 C.3          1 FAD600   0.0000
    35 C8          32.2830    29.0850   -32.6340 C.ar         1 FAD600   0.0000
    36 C8M         32.2700    30.3510   -33.4390 C.3          1 FAD600   0.0000
    37 C9          33.2190    28.9170   -31.6200 C.ar         1 FAD600   0.0000
    38 C9A         33.1930    27.7710   -30.8330 C.ar         1 FAD600   0.0000
    39 N10         34.1230    27.6050   -29.8270 N.pl3        1 FAD600   0.0000
    40 C10         34.0960    26.4670   -29.0460 C.2          1 FAD600   0.0000
    41 C1'         35.2430    28.5910   -29.6730 C.3          1 FAD600   0.0000
    42 C2'         34.8920    29.5920   -28.5790 C.3          1 FAD600   0.0000
    43 O2'         33.5150    29.8890   -28.6380 O.3          1 FAD600   0.0000
    44 C3'         35.6960    30.8770   -28.7370 C.3          1 FAD600   0.0000
    45 O3'         37.0430    30.5590   -29.0060 O.3          1 FAD600   0.0000
    46 C4'         35.6160    31.7300   -27.4770 C.3          1 FAD600   0.0000
    47 O4'         34.2690    32.0430   -27.2050 O.3          1 FAD600   0.0000
    48 C5'         36.4140    33.0180   -27.6380 C.3          1 FAD600   0.0000
    49 O5'         35.9420    33.9810   -26.7220 O.3          1 FAD600   0.0000
    50 P           36.7390    35.3640   -26.5070 P.3          1 FAD600   0.0000
    51 O1P         36.6180    35.8010   -25.0670 O.co2        1 FAD600   0.0000
    52 O2P         38.1860    35.2240   -26.9140 O.co2        1 FAD600  -1.0000
    53 O3P         35.9690    36.4100   -27.4580 O.3          1 FAD600   0.0000
    54 H5B1        35.3144    40.4446   -27.9527 H            1 FAD600   0.0000
    55 H5B2        36.0531    39.5924   -26.7717 H            1 FAD600   0.0000
    56 H4B         34.0104    39.6226   -25.5082 H            1 FAD600   0.0000
    57 H3B         32.9146    40.5195   -27.8650 H            1 FAD600   0.0000
    58 H5          31.7628    40.1732   -25.3212 H            1 FAD600   0.0000
    59 H2B         32.9401    42.5415   -27.4957 H            1 FAD600   0.0000
    60 H7          31.2985    43.0991   -25.6095 H            1 FAD600   0.0000
    61 H1B         33.5742    42.9519   -24.8936 H            1 FAD600   0.0000
    62 H8A         34.9832    42.7942   -28.4025 H            1 FAD600   0.0000
    63 H6A1        36.9602    48.4791   -27.6467 H            1 FAD600   0.0000
    64 H6A2        36.6646    47.1542   -28.7224 H            1 FAD600   0.0000
    65 H2A         35.0554    47.2076   -23.7022 H            1 FAD600   0.0000
    66 H13         34.0291    23.3643   -26.9108 H            1 FAD600   0.0000
    67 H14         30.6026    26.2602   -32.2371 H            1 FAD600   0.0000
    68 H7M1        30.5100    29.1337   -34.4549 H            1 FAD600   0.0000
    69 H7M2        30.4890    27.5127   -34.6509 H            1 FAD600   0.0000
    70 H7M3        29.4184    28.2276   -33.6461 H            1 FAD600   0.0000
    71 H8M1        33.0252    30.9386   -33.1484 H            1 FAD600   0.0000
    72 H8M2        32.3735    30.1304   -34.4089 H            1 FAD600   0.0000
    73 H8M3        31.4027    30.8278   -33.2963 H            1 FAD600   0.0000
    74 H21         33.9109    29.6202   -31.4566 H            1 FAD600   0.0000
    75 H1'1        35.3813    29.0759   -30.5366 H            1 FAD600   0.0000
    76 H1'2        36.0818    28.1065   -29.4248 H            1 FAD600   0.0000
    77 H2'         35.0991    29.1864   -27.6887 H            1 FAD600   0.0000
    78 H25         33.0107    29.2484   -28.0589 H            1 FAD600   0.0000
    79 H3'         35.3261    31.3986   -29.5058 H            1 FAD600   0.0000
    80 H27         37.5703    31.4023   -29.1096 H            1 FAD600   0.0000
    81 H4'         35.9900    31.2103   -26.7089 H            1 FAD600   0.0000
    82 H29         33.6815    31.3061   -27.5394 H            1 FAD600   0.0000
    83 H5'1        36.3053    33.3632   -28.5702 H            1 FAD600   0.0000
    84 H5'2        37.3811    32.8353   -27.4609 H            1 FAD600   0.0000
@<TRIPOS>BOND
     1    1    2      ar
     2    1    3      ar
     3    1    4       1
     4    1   53       1
     5    4    5       1
     6    5    6       1
     7    6    7       1
     8    6    8       1
     9    7   12       1
    10    8    9       1
    11    8   10       1
    12   10   11       1
    13   10   12       1
    14   12   13       1
    15   13   14       1
    16   13   22       1
    17   14   15       2
    18   15   16       1
    19   16   17      ar
    20   16   22      ar
    21   17   18       1
    22   17   19      ar
    23   19   20      ar
    24   20   21      ar
    25   21   22      ar
    26   23   24       1
    27   23   40       2
    28   24   25       2
    29   24   26       1
    30   26   27       1
    31   27   28       2
    32   27   29       1
    33   29   30       2
    34   29   40       1
    35   30   31       1
    36   31   32      ar
    37   31   38      ar
    38   32   33      ar
    39   33   34       1
    40   33   35      ar
    41   35   36       1
    42   35   37      ar
    43   37   38      ar
    44   38   39       1
    45   39   40       1
    46   39   41       1
    47   41   42       1
    48   42   43       1
    49   42   44       1
    50   44   45       1
    51   44   46       1
    52   46   47       1
    53   46   48       1
    54   48   49       1
    55   49   50       1
    56   50   51      ar
    57   50   52      ar
    58   50   53       1
    59   48   84       1
    60    5   54       1
    61    5   55       1
    62    6   56       1
    63    8   57       1
    64    9   58       1
    65   10   59       1
    66   11   60       1
    67   12   61       1
    68   14   62       1
    69   18   63       1
    70   18   64       1
    71   20   65       1
    72   26   66       1
    73   32   67       1
    74   34   68       1
    75   34   69       1
    76   34   70       1
    77   36   71       1
    78   36   72       1
    79   36   73       1
    80   37   74       1
    81   41   75       1
    82   41   76       1
    83   42   77       1
    84   43   78       1
    85   44   79       1
    86   45   80       1
    87   46   81       1
    88   47   82       1
    89   48   83       1
@<TRIPOS>SUBSTRUCTURE
     1 FAD600      1 GROUP             4 A     FAD     0 **** FAD A 600
