@<TRIPOS>MOLECULE
4ylh_YE1_11_ligand
   98   101     1     0     0
SMALL
NO_CHARGES


@<TRIPOS>ATOM
     1 N1A         68.7330    97.3510   -26.3860 N.ar         1 YE1502   0.0000
     2 C2A         68.1530    98.1340   -27.3800 C.ar         1 YE1502   0.0000
     3 N3A         66.9720    98.7990   -27.3830 N.ar         1 YE1502   0.0000
     4 C4A         66.3050    98.6350   -26.1660 C.ar         1 YE1502   0.0000
     5 C5A         66.7890    97.8460   -25.0660 C.ar         1 YE1502   0.0000
     6 C6A         68.0580    97.2180   -25.2370 C.ar         1 YE1502   0.0000
     7 N6A         68.6460    96.4660   -24.2300 N.pl3        1 YE1502   0.0000
     8 N7A         65.8640    97.8870   -24.0210 N.2          1 YE1502   0.0000
     9 C8A         64.9000    98.6520   -24.4980 C.2          1 YE1502   0.0000
    10 N9A         65.1150    99.1230   -25.7480 N.pl3        1 YE1502   0.0000
    11 C1'         64.2330   100.0450   -26.6430 C.3          1 YE1502   0.0000
    12 C2'         63.0290    99.3270   -27.3220 C.3          1 YE1502   0.0000
    13 O2'         63.4440    98.8800   -28.5790 O.3          1 YE1502   0.0000
    14 C3'         62.0710   100.6030   -27.4480 C.3          1 YE1502   0.0000
    15 O3'         62.3660   101.4660   -28.4700 O.3          1 YE1502   0.0000
    16 P3'         61.4700   101.1700   -29.9800 P.3          1 YE1502   0.0000
    17 O7A         62.2660   102.1930   -30.7700 O.co2        1 YE1502   0.0000
    18 O8A         59.9870   101.5020   -29.5610 O.co2        1 YE1502  -1.0000
    19 O9A         61.6940    99.7380   -30.3140 O.co2        1 YE1502  -1.0000
    20 C4'         62.3120   101.2880   -26.1080 C.3          1 YE1502   0.0000
    21 O4'         63.7800   101.0550   -25.8310 O.3          1 YE1502   0.0000
    22 C5'         61.2710   100.7260   -25.0440 C.3          1 YE1502   0.0000
    23 O5'         61.4210    99.3230   -24.8840 O.3          1 YE1502   0.0000
    24 P1A         60.1810    98.2340   -25.1060 P.3          1 YE1502   0.0000
    25 O1A         60.7660    96.9160   -25.4750 O.co2        1 YE1502   0.0000
    26 O2A         59.0790    98.8460   -25.9130 O.co2        1 YE1502  -1.0000
    27 O3A         59.6850    98.2150   -23.6150 O.3          1 YE1502   0.0000
    28 P2A         58.8620    97.2180   -22.7220 P.3          1 YE1502   0.0000
    29 O4A         57.9410    96.3750   -23.5350 O.co2        1 YE1502   0.0000
    30 O5A         58.5800    97.8800   -21.3940 O.co2        1 YE1502  -1.0000
    31 O6A         60.0660    96.0790   -22.3310 O.3          1 YE1502   0.0000
    32 C11         62.1420    95.6040   -21.4900 C.3          1 YE1502   0.0000
    33 C12         61.0470    96.6300   -21.5160 C.3          1 YE1502   0.0000
    34 C14         61.5410    94.2870   -20.8680 C.3          1 YE1502   0.0000
    35 C13         63.3280    96.0990   -20.6480 C.3          1 YE1502   0.0000
    36 C10         62.5770    95.3280   -22.9580 C.3          1 YE1502   0.0000
    37 O10         62.8910    96.4960   -23.6410 O.3          1 YE1502   0.0000
    38 C9P         63.7310    94.4480   -22.9760 C.2          1 YE1502   0.0000
    39 O9P         63.6160    93.2880   -22.5720 O.2          1 YE1502   0.0000
    40 N8P         64.8570    94.9910   -23.3570 N.am         1 YE1502   0.0000
    41 C7P         66.0540    94.2210   -23.4650 C.3          1 YE1502   0.0000
    42 C6P         66.9160    94.2950   -22.1910 C.3          1 YE1502   0.0000
    43 C5P         68.2210    93.6060   -22.5450 C.2          1 YE1502   0.0000
    44 O5P         68.3300    92.5040   -23.0810 O.2          1 YE1502   0.0000
    45 N4P         69.2930    94.3790   -22.2640 N.am         1 YE1502   0.0000
    46 C3P         70.6380    94.0160   -22.5350 C.3          1 YE1502   0.0000
    47 C2P         71.1440    92.9090   -21.6770 C.3          1 YE1502   0.0000
    48 OAD         73.4600    94.7850   -21.2290 O.2          1 YE1502   0.0000
    49 CAB         73.5910    93.5880   -21.6530 C.2          1 YE1502   0.0000
    50 NAA         72.5600    92.6700   -21.9050 N.am         1 YE1502   0.0000
    51 CAC         74.9270    92.9770   -21.9650 C.3          1 YE1502   0.0000
    52 CAF         76.1680    93.7570   -21.5440 C.ar         1 YE1502   0.0000
    53 CAG         77.3670    92.9560   -21.3780 C.ar         1 YE1502   0.0000
    54 CAE         76.2350    95.1730   -21.4640 C.ar         1 YE1502   0.0000
    55 CAJ         77.5010    95.8020   -21.1730 C.ar         1 YE1502   0.0000
    56 OAL         77.6850    97.2910   -21.0530 O.3          1 YE1502   0.0000
    57 CAI         78.6190    95.0170   -20.9600 C.ar         1 YE1502   0.0000
    58 CAH         78.5250    93.5720   -21.1120 C.ar         1 YE1502   0.0000
    59 OAK         79.6100    92.8290   -20.8720 O.3          1 YE1502   0.0000
    60 H2A         68.6893    98.2188   -28.2197 H            1 YE1502   0.0000
    61 H6A1        68.1738    96.3431   -23.3571 H            1 YE1502   0.0000
    62 H6A2        69.5420    96.0469   -24.3771 H            1 YE1502   0.0000
    63 H8A         64.0746    98.8669   -23.9759 H            1 YE1502   0.0000
    64 H1'         64.8098   100.4436   -27.3560 H            1 YE1502   0.0000
    65 H2'         62.6389    98.5995   -26.7576 H            1 YE1502   0.0000
    66 H7          62.8777    99.3024   -29.2867 H            1 YE1502   0.0000
    67 H3'         61.1176   100.3087   -27.5143 H            1 YE1502   0.0000
    68 H4'         62.1588   102.2700   -26.2182 H            1 YE1502   0.0000
    69 H5'1        60.3423   100.9226   -25.3585 H            1 YE1502   0.0000
    70 H5'2        61.4270   101.1748   -24.1641 H            1 YE1502   0.0000
    71 H12         60.6915    96.7897   -20.5951 H            1 YE1502   0.0000
    72 H13         61.3803    97.4917   -21.8987 H            1 YE1502   0.0000
    73 H14         62.2480    93.5805   -20.8363 H            1 YE1502   0.0000
    74 H15         61.2154    94.4745   -19.9413 H            1 YE1502   0.0000
    75 H16         60.7782    93.9701   -21.4316 H            1 YE1502   0.0000
    76 H17         64.0463    95.4033   -20.6425 H            1 YE1502   0.0000
    77 H18         63.6866    96.9452   -21.0423 H            1 YE1502   0.0000
    78 H19         63.0231    96.2708   -19.7112 H            1 YE1502   0.0000
    79 H20         61.8233    94.8742   -23.4333 H            1 YE1502   0.0000
    80 H21         62.2885    96.5910   -24.4334 H            1 YE1502   0.0000
    81 H8P         64.8805    95.9661   -23.5774 H            1 YE1502   0.0000
    82 H7P1        66.5896    94.5662   -24.2357 H            1 YE1502   0.0000
    83 H7P2        65.8078    93.2661   -23.6313 H            1 YE1502   0.0000
    84 H6P1        66.4642    93.8211   -21.4352 H            1 YE1502   0.0000
    85 H6P2        67.0816    95.2476   -21.9357 H            1 YE1502   0.0000
    86 H4P         69.1274    95.2674   -21.8359 H            1 YE1502   0.0000
    87 H3P1        71.2170    94.8182   -22.3893 H            1 YE1502   0.0000
    88 H3P2        70.7010    93.7287   -23.4908 H            1 YE1502   0.0000
    89 H2P1        70.6346    92.0746   -21.8875 H            1 YE1502   0.0000
    90 H2P2        71.0048    93.1512   -20.7168 H            1 YE1502   0.0000
    91 HAA         72.8209    91.7771   -22.2719 H            1 YE1502   0.0000
    92 HAC1        74.9746    92.8485   -22.9556 H            1 YE1502   0.0000
    93 HAC2        74.9635    92.0866   -21.5112 H            1 YE1502   0.0000
    94 HAG         77.3284    91.9602   -21.4610 H            1 YE1502   0.0000
    95 HAE         75.4153    95.7275   -21.6075 H            1 YE1502   0.0000
    96 HAL         76.9039    97.9029   -21.1769 H            1 YE1502   0.0000
    97 HAI         79.4880    95.4396   -20.7028 H            1 YE1502   0.0000
    98 HAK         79.5474    91.8312   -20.8931 H            1 YE1502   0.0000
@<TRIPOS>BOND
     1    1    2      ar
     2    1    6      ar
     3    2    3      ar
     4    3    4      ar
     5    4    5      ar
     6    4   10       1
     7    5    6      ar
     8    5    8       1
     9    6    7       1
    10    8    9       2
    11    9   10       1
    12   10   11       1
    13   11   12       1
    14   11   21       1
    15   12   13       1
    16   12   14       1
    17   14   15       1
    18   14   20       1
    19   15   16       1
    20   16   17      ar
    21   16   18      ar
    22   16   19      ar
    23   20   21       1
    24   20   22       1
    25   22   23       1
    26   23   24       1
    27   24   25      ar
    28   24   26      ar
    29   24   27       1
    30   27   28       1
    31   28   29      ar
    32   28   30      ar
    33   28   31       1
    34   31   33       1
    35   32   33       1
    36   32   34       1
    37   32   35       1
    38   32   36       1
    39   36   37       1
    40   36   38       1
    41   38   39       2
    42   38   40      am
    43   40   41       1
    44   41   42       1
    45   42   43       1
    46   43   44       2
    47   43   45      am
    48   45   46       1
    49   46   47       1
    50   47   50       1
    51   48   49       2
    52   49   50      am
    53   49   51       1
    54   51   52       1
    55   52   53      ar
    56   52   54      ar
    57   53   58      ar
    58   54   55      ar
    59   55   56       1
    60   55   57      ar
    61   57   58      ar
    62   58   59       1
    63    2   60       1
    64    7   61       1
    65    7   62       1
    66    9   63       1
    67   11   64       1
    68   12   65       1
    69   13   66       1
    70   14   67       1
    71   59   98       1
    72   57   97       1
    73   20   68       1
    74   22   69       1
    75   22   70       1
    76   56   96       1
    77   54   95       1
    78   33   71       1
    79   33   72       1
    80   34   73       1
    81   34   74       1
    82   34   75       1
    83   35   76       1
    84   35   77       1
    85   35   78       1
    86   36   79       1
    87   37   80       1
    88   40   81       1
    89   41   82       1
    90   41   83       1
    91   42   84       1
    92   42   85       1
    93   45   86       1
    94   46   87       1
    95   46   88       1
    96   47   89       1
    97   47   90       1
    98   50   91       1
    99   51   92       1
   100   51   93       1
   101   53   94       1
@<TRIPOS>SUBSTRUCTURE
     1 YE1502      1 GROUP             4 K     YE1     0 **** YE1 K 502
