@<TRIPOS>MOLECULE
3qvx_NAD_1_ligand
   70    74     1     0     0
SMALL
NO_CHARGES


@<TRIPOS>ATOM
     1 PA           8.9130    24.7830    18.0360 P.3          1 NAD396   0.0000
     2 O1A          8.1220    25.1430    19.2400 O.co2        1 NAD396   0.0000
     3 O2A          8.1360    23.9280    17.0970 O.co2        1 NAD396  -1.0000
     4 O5B         10.1640    23.8890    18.5310 O.3          1 NAD396   0.0000
     5 C5B         10.8120    24.0770    19.7820 C.3          1 NAD396   0.0000
     6 C4B         10.8870    22.7640    20.5780 C.3          1 NAD396   0.0000
     7 O4B         11.6080    23.0200    21.7850 O.3          1 NAD396   0.0000
     8 C3B          9.5270    22.2040    21.0020 C.3          1 NAD396   0.0000
     9 O3B          9.3540    20.8590    20.5490 O.3          1 NAD396   0.0000
    10 C2B          9.5070    22.3720    22.5260 C.3          1 NAD396   0.0000
    11 O2B          8.7720    21.3540    23.1370 O.3          1 NAD396   0.0000
    12 C1B         11.0050    22.3150    22.8520 C.3          1 NAD396   0.0000
    13 N9A         11.4850    23.0440    24.0410 N.pl3        1 NAD396   0.0000
    14 C8A         11.0390    24.2190    24.5780 C.2          1 NAD396   0.0000
    15 N7A         11.8310    24.5300    25.6240 N.2          1 NAD396   0.0000
    16 C5A         12.7470    23.5450    25.7810 C.ar         1 NAD396   0.0000
    17 C6A         13.7720    23.3500    26.7020 C.ar         1 NAD396   0.0000
    18 N6A         14.0350    24.2470    27.6430 N.pl3        1 NAD396   0.0000
    19 N1A         14.5800    22.2310    26.5770 N.ar         1 NAD396   0.0000
    20 C2A         14.3480    21.3120    25.5600 C.ar         1 NAD396   0.0000
    21 N3A         13.3250    21.5060    24.6450 N.ar         1 NAD396   0.0000
    22 C4A         12.5450    22.6160    24.7730 C.ar         1 NAD396   0.0000
    23 O3           9.5060    26.1840    17.4540 O.3          1 NAD396   0.0000
    24 PN          10.1850    26.2890    16.0010 P.3          1 NAD396   0.0000
    25 O1N          9.2170    26.8080    15.0390 O.co2        1 NAD396   0.0000
    26 O2N         10.7930    24.9650    15.6960 O.co2        1 NAD396  -1.0000
    27 O5D         11.3460    27.2970    16.3440 O.3          1 NAD396   0.0000
    28 C5D         12.3950    26.8890    17.1900 C.3          1 NAD396   0.0000
    29 C4D         13.1310    28.0360    17.8330 C.3          1 NAD396   0.0000
    30 O4D         13.8710    28.7710    16.8590 O.3          1 NAD396   0.0000
    31 C3D         12.1650    28.9940    18.5330 C.3          1 NAD396   0.0000
    32 O3D         12.7970    29.5570    19.6590 O.3          1 NAD396   0.0000
    33 C2D         12.0740    30.0700    17.4900 C.3          1 NAD396   0.0000
    34 O2D         11.5600    31.2810    17.9880 O.3          1 NAD396   0.0000
    35 C1D         13.5040    30.1230    16.9480 C.3          1 NAD396   0.0000
    36 N1N         13.5200    30.7660    15.6200 N.ar         1 NAD396   1.0000
    37 C2N         12.7980    30.2160    14.5920 C.ar         1 NAD396   0.0000
    38 C3N         12.7930    30.7830    13.3250 C.ar         1 NAD396   0.0000
    39 C7N         12.0010    30.1700    12.1980 C.2          1 NAD396   0.0000
    40 O7N         11.2110    29.0310    12.4430 O.2          1 NAD396   0.0000
    41 N7N         12.0620    30.6880    10.9560 N.am         1 NAD396   0.0000
    42 C4N         13.5080    31.9820    13.1200 C.ar         1 NAD396   0.0000
    43 C5N         14.2160    32.5320    14.1880 C.ar         1 NAD396   0.0000
    44 C6N         14.2140    31.9330    15.4360 C.ar         1 NAD396   0.0000
    45 H5B1        10.3012    24.7517    20.3148 H            1 NAD396   0.0000
    46 H5B2        11.7399    24.4130    19.6205 H            1 NAD396   0.0000
    47 H4B         11.3751    22.0772    20.0395 H            1 NAD396   0.0000
    48 H3B          8.8064    22.7728    20.6055 H            1 NAD396   0.0000
    49 H5          10.0711    20.2812    20.9387 H            1 NAD396   0.0000
    50 H2B          9.1322    23.2660    22.7716 H            1 NAD396   0.0000
    51 H7           9.3778    20.5877    23.3508 H            1 NAD396   0.0000
    52 H1B         11.3237    21.3673    22.8700 H            1 NAD396   0.0000
    53 H8A         10.2604    24.7551    24.2518 H            1 NAD396   0.0000
    54 H6A1        14.7765    24.0857    28.2943 H            1 NAD396   0.0000
    55 H6A2        13.4918    25.0846    27.7012 H            1 NAD396   0.0000
    56 H2A         14.9270    20.4999    25.4876 H            1 NAD396   0.0000
    57 H5D1        13.0477    26.3570    16.6506 H            1 NAD396   0.0000
    58 H5D2        12.0127    26.3135    17.9129 H            1 NAD396   0.0000
    59 H4D         13.7679    27.6694    18.5112 H            1 NAD396   0.0000
    60 H3D         11.2816    28.5763    18.7455 H            1 NAD396   0.0000
    61 H17         13.0618    28.8290    20.2914 H            1 NAD396   0.0000
    62 H2D         11.4719    29.7495    16.7588 H            1 NAD396   0.0000
    63 H19         10.6392    31.1296    18.3473 H            1 NAD396   0.0000
    64 H1D         14.1038    30.6101    17.5828 H            1 NAD396   0.0000
    65 H2N         12.2630    29.3878    14.7589 H            1 NAD396   0.0000
    66 H7N1        11.5329    30.2742    10.2151 H            1 NAD396   0.0000
    67 H7N2        12.6364    31.4863    10.7749 H            1 NAD396   0.0000
    68 H4N         13.5070    32.4290    12.2255 H            1 NAD396   0.0000
    69 H5N         14.7352    33.3754    14.0497 H            1 NAD396   0.0000
    70 H6N         14.7143    32.3480    16.1959 H            1 NAD396   0.0000
@<TRIPOS>BOND
     1    1    2      ar
     2    1    3      ar
     3    1    4       1
     4    1   23       1
     5    4    5       1
     6    5    6       1
     7    6    7       1
     8    6    8       1
     9    7   12       1
    10    8    9       1
    11    8   10       1
    12   10   11       1
    13   10   12       1
    14   12   13       1
    15   13   14       1
    16   13   22       1
    17   14   15       2
    18   15   16       1
    19   16   17      ar
    20   16   22      ar
    21   17   18       1
    22   17   19      ar
    23   19   20      ar
    24   20   21      ar
    25   21   22      ar
    26   23   24       1
    27   24   25      ar
    28   24   26      ar
    29   24   27       1
    30   27   28       1
    31   28   29       1
    32   29   30       1
    33   29   31       1
    34   30   35       1
    35   31   32       1
    36   31   33       1
    37   33   34       1
    38   33   35       1
    39   35   36       1
    40   36   37      ar
    41   36   44      ar
    42   37   38      ar
    43   38   39       1
    44   38   42      ar
    45   39   40       2
    46   39   41      am
    47   42   43      ar
    48   43   44      ar
    49   44   70       1
    50    5   45       1
    51    5   46       1
    52    6   47       1
    53    8   48       1
    54    9   49       1
    55   10   50       1
    56   11   51       1
    57   12   52       1
    58   14   53       1
    59   18   54       1
    60   18   55       1
    61   20   56       1
    62   43   69       1
    63   28   57       1
    64   28   58       1
    65   29   59       1
    66   31   60       1
    67   32   61       1
    68   33   62       1
    69   34   63       1
    70   35   64       1
    71   37   65       1
    72   41   66       1
    73   41   67       1
    74   42   68       1
@<TRIPOS>SUBSTRUCTURE
     1 NAD396      1 GROUP             4 A     NAD     0 **** NAD A 396
