@<TRIPOS>MOLECULE
3q0u_LL3_1_ligand
   44    47     1     0     0
SMALL
NO_CHARGES


@<TRIPOS>ATOM
     1 C34         30.0580    77.0610     9.2460 C.ar         1 LL3217   0.0000
     2 C43         29.7890    78.2810     8.6130 C.ar         1 LL3217   0.0000
     3 C41         30.1270    79.4860     9.2170 C.ar         1 LL3217   0.0000
     4 C39         30.7720    79.4480    10.4480 C.ar         1 LL3217   0.0000
     5 C37         31.0410    78.2260    11.0710 C.ar         1 LL3217   0.0000
     6 C36         30.7010    77.0240    10.4810 C.ar         1 LL3217   0.0000
     7 C01         30.9840    75.7100    11.2240 C.3          1 LL3217   0.0000
     8 C04         31.8980    74.7120    10.4890 C.2          1 LL3217   0.0000
     9 O06         32.2310    74.9070     9.3190 O.2          1 LL3217   0.0000
    10 N05         32.3300    73.6080    11.1290 N.am         1 LL3217   0.0000
    11 C18         31.9470    73.4250    12.5790 C.3          1 LL3217   0.0000
    12 C15         32.0970    71.9720    13.0410 C.3          1 LL3217   0.0000
    13 C07         33.2680    72.6790    10.4020 C.3          1 LL3217   0.0000
    14 C10         33.1230    71.2390    10.8700 C.3          1 LL3217   0.0000
    15 C13         33.3010    71.2660    12.4010 C.3          1 LL3217   0.0000
    16 C21         33.3170    69.8540    12.9470 C.2          1 LL3217   0.0000
    17 N25         33.1270    68.7500    12.2470 N.2          1 LL3217   0.0000
    18 O22         33.5000    69.5730    14.2480 O.2          1 LL3217   0.0000
    19 N23         33.4070    68.1570    14.3170 N.2          1 LL3217   0.0000
    20 C24         33.1800    67.7140    13.0840 C.2          1 LL3217   0.0000
    21 C26         33.0160    66.3930    12.6880 C.2          1 LL3217   0.0000
    22 C27         33.0400    65.8870    11.4480 C.2          1 LL3217   0.0000
    23 C29         32.8270    64.5460    11.4050 C.2          1 LL3217   0.0000
    24 C31         32.6020    63.9270    12.5770 C.2          1 LL3217   0.0000
    25 S33         32.6760    65.1170    13.7660 S.3          1 LL3217   0.0000
    26 H1          29.7850    76.2056     8.8057 H            1 LL3217   0.0000
    27 H2          29.3483    78.2850     7.7154 H            1 LL3217   0.0000
    28 H3          29.9118    80.3581     8.7775 H            1 LL3217   0.0000
    29 H4          31.0456    80.3016    10.8912 H            1 LL3217   0.0000
    30 H5          31.4900    78.2217    11.9645 H            1 LL3217   0.0000
    31 H6          30.1083    75.2578    11.3932 H            1 LL3217   0.0000
    32 H7          31.4160    75.9372    12.0968 H            1 LL3217   0.0000
    33 H8          30.9939    73.7034    12.6975 H            1 LL3217   0.0000
    34 H9          32.5359    74.0041    13.1427 H            1 LL3217   0.0000
    35 H10         31.2663    71.4717    12.7969 H            1 LL3217   0.0000
    36 H11         32.2120    71.9627    14.0343 H            1 LL3217   0.0000
    37 H12         34.2083    72.9779    10.5647 H            1 LL3217   0.0000
    38 H13         33.0694    72.7215     9.4228 H            1 LL3217   0.0000
    39 H14         33.8255    70.6651    10.4492 H            1 LL3217   0.0000
    40 H15         32.2180    70.8864    10.6322 H            1 LL3217   0.0000
    41 H16         34.1480    71.7397    12.6423 H            1 LL3217   0.0000
    42 H17         33.1994    66.4430    10.6322 H            1 LL3217   0.0000
    43 H18         32.8371    64.0424    10.5411 H            1 LL3217   0.0000
    44 H19         32.4256    62.9525    12.7153 H            1 LL3217   0.0000
@<TRIPOS>BOND
     1    1    2      ar
     2    1    6      ar
     3    2    3      ar
     4    3    4      ar
     5    4    5      ar
     6    5    6      ar
     7    6    7       1
     8    7    8       1
     9    8    9       2
    10    8   10      am
    11   10   11       1
    12   10   13       1
    13   11   12       1
    14   12   15       1
    15   13   14       1
    16   14   15       1
    17   15   16       1
    18   16   17       2
    19   16   18       1
    20   17   20       1
    21   18   19       1
    22   19   20       2
    23   20   21       1
    24   21   22       2
    25   21   25       1
    26   22   23       1
    27   23   24       2
    28   24   25       1
    29    1   26       1
    30    2   27       1
    31    3   28       1
    32    4   29       1
    33    5   30       1
    34    7   31       1
    35    7   32       1
    36   11   33       1
    37   11   34       1
    38   12   35       1
    39   12   36       1
    40   13   37       1
    41   13   38       1
    42   14   39       1
    43   14   40       1
    44   15   41       1
    45   22   42       1
    46   23   43       1
    47   24   44       1
@<TRIPOS>SUBSTRUCTURE
     1 LL3217      1 GROUP             4 A     LL3     0 **** LL3 A 217
