@<TRIPOS>MOLECULE
4d5g_FAD_1_ligand
   84    89     1     0     0
SMALL
NO_CHARGES


@<TRIPOS>ATOM
     1 PA         -19.0070   -39.7970     4.7830 P.3          1 FAD1588   0.0000
     2 O1A        -17.7060   -40.0750     4.1630 O.co2        1 FAD1588   0.0000
     3 O2A        -20.0490   -40.8440     4.7450 O.co2        1 FAD1588  -1.0000
     4 O5B        -19.7110   -38.5440     4.0190 O.3          1 FAD1588   0.0000
     5 C5B        -18.9540   -37.3880     3.5880 C.3          1 FAD1588   0.0000
     6 C4B        -19.3030   -36.2320     4.5060 C.3          1 FAD1588   0.0000
     7 O4B        -18.5130   -35.1500     3.9940 O.3          1 FAD1588   0.0000
     8 C3B        -20.7870   -35.7810     4.3880 C.3          1 FAD1588   0.0000
     9 O3B        -21.2010   -35.1320     5.5880 O.3          1 FAD1588   0.0000
    10 C2B        -20.7770   -34.8240     3.2230 C.3          1 FAD1588   0.0000
    11 O2B        -21.8830   -33.9020     3.2050 O.3          1 FAD1588   0.0000
    12 C1B        -19.3680   -34.1730     3.4050 C.3          1 FAD1588   0.0000
    13 N9A        -18.7500   -33.6260     2.1790 N.pl3        1 FAD1588   0.0000
    14 C8A        -18.7620   -34.1660     0.9040 C.2          1 FAD1588   0.0000
    15 N7A        -18.0980   -33.3920     0.0460 N.2          1 FAD1588   0.0000
    16 C5A        -17.6660   -32.3470     0.7620 C.ar         1 FAD1588   0.0000
    17 C6A        -16.8910   -31.1170     0.4420 C.ar         1 FAD1588   0.0000
    18 N6A        -16.4800   -30.8830    -0.8030 N.pl3        1 FAD1588   0.0000
    19 N1A        -16.6650   -30.2390     1.4500 N.ar         1 FAD1588   0.0000
    20 C2A        -17.1330   -30.4420     2.7070 C.ar         1 FAD1588   0.0000
    21 N3A        -17.8130   -31.5380     3.0600 N.ar         1 FAD1588   0.0000
    22 C4A        -18.1240   -32.4750     2.1260 C.ar         1 FAD1588   0.0000
    23 N1         -15.9010   -45.2120    10.5310 N.2          1 FAD1588   0.0000
    24 C2         -15.0100   -44.6100    11.3420 C.2          1 FAD1588   0.0000
    25 O2         -14.7900   -43.4150    11.1260 O.2          1 FAD1588   0.0000
    26 N3         -14.3440   -45.2370    12.3670 N.pl3        1 FAD1588   0.0000
    27 C4         -14.4790   -46.5480    12.5920 C.2          1 FAD1588   0.0000
    28 O4         -13.8460   -47.1340    13.4830 O.2          1 FAD1588   0.0000
    29 C4X        -15.4170   -47.2860    11.7050 C.2          1 FAD1588   0.0000
    30 N5         -15.6650   -48.5860    11.8820 N.2          1 FAD1588   0.0000
    31 C5X        -16.5600   -49.2310    11.0770 C.ar         1 FAD1588   0.0000
    32 C6         -16.7660   -50.6280    11.2430 C.ar         1 FAD1588   0.0000
    33 C7         -17.6430   -51.2930    10.4320 C.ar         1 FAD1588   0.0000
    34 C7M        -17.8930   -52.7640    10.6330 C.3          1 FAD1588   0.0000
    35 C8         -18.3780   -50.5340     9.4040 C.ar         1 FAD1588   0.0000
    36 C8M        -19.3660   -51.2470     8.5340 C.3          1 FAD1588   0.0000
    37 C9         -18.1410   -49.1820     9.1790 C.ar         1 FAD1588   0.0000
    38 C9A        -17.2880   -48.5000    10.0030 C.ar         1 FAD1588   0.0000
    39 N10        -17.0700   -47.1320     9.8370 N.pl3        1 FAD1588   0.0000
    40 C10        -16.1260   -46.5070    10.6850 C.2          1 FAD1588   0.0000
    41 C1'        -17.6800   -46.3240     8.7800 C.3          1 FAD1588   0.0000
    42 C2'        -18.8310   -45.5100     9.3030 C.3          1 FAD1588   0.0000
    43 O2'        -19.9730   -46.3400     9.4240 O.3          1 FAD1588   0.0000
    44 C3'        -19.1080   -44.3520     8.3240 C.3          1 FAD1588   0.0000
    45 O3'        -19.2990   -44.9010     7.0140 O.3          1 FAD1588   0.0000
    46 C4'        -18.0000   -43.2910     8.3280 C.3          1 FAD1588   0.0000
    47 O4'        -17.5640   -43.0030     9.6920 O.3          1 FAD1588   0.0000
    48 C5'        -18.5420   -42.0050     7.7240 C.3          1 FAD1588   0.0000
    49 O5'        -17.4770   -41.1310     7.4080 O.3          1 FAD1588   0.0000
    50 P          -17.6680   -39.5490     7.4180 P.3          1 FAD1588   0.0000
    51 O1P        -18.3250   -39.0960     8.7460 O.co2        1 FAD1588   0.0000
    52 O2P        -16.3430   -39.0260     6.9250 O.co2        1 FAD1588  -1.0000
    53 O3P        -18.7300   -39.1740     6.2800 O.3          1 FAD1588   0.0000
    54 H5B1       -19.1940   -37.1572     2.6451 H            1 FAD1588   0.0000
    55 H5B2       -17.9748   -37.5829     3.6446 H            1 FAD1588   0.0000
    56 H4B        -19.0622   -36.4382     5.4544 H            1 FAD1588   0.0000
    57 H3B        -21.3766   -36.5646     4.1924 H            1 FAD1588   0.0000
    58 H5         -20.6266   -34.3292     5.7480 H            1 FAD1588   0.0000
    59 H2B        -20.7819   -35.3505     2.3728 H            1 FAD1588   0.0000
    60 H7         -21.6356   -33.0747     3.7094 H            1 FAD1588   0.0000
    61 H1B        -19.4636   -33.4212     4.0575 H            1 FAD1588   0.0000
    62 H8A        -19.2107   -35.0254     0.6588 H            1 FAD1588   0.0000
    63 H6A1       -15.9598   -30.0545    -1.0104 H            1 FAD1588   0.0000
    64 H6A2       -16.6916   -31.5358    -1.5304 H            1 FAD1588   0.0000
    65 H2A        -16.9620   -29.7415     3.3999 H            1 FAD1588   0.0000
    66 H13        -13.7436   -44.6997    12.9593 H            1 FAD1588   0.0000
    67 H14        -16.2686   -51.1249    11.9541 H            1 FAD1588   0.0000
    68 H7M1       -18.5569   -53.0846     9.9574 H            1 FAD1588   0.0000
    69 H7M2       -17.0354   -53.2661    10.5219 H            1 FAD1588   0.0000
    70 H7M3       -18.2528   -52.9183    11.5532 H            1 FAD1588   0.0000
    71 H8M1       -19.7760   -50.5975     7.8937 H            1 FAD1588   0.0000
    72 H8M2       -18.9000   -51.9695     8.0232 H            1 FAD1588   0.0000
    73 H8M3       -20.0819   -51.6503     9.1039 H            1 FAD1588   0.0000
    74 H21        -18.5911   -48.7116     8.4200 H            1 FAD1588   0.0000
    75 H1'1       -18.0127   -46.9309     8.0582 H            1 FAD1588   0.0000
    76 H1'2       -16.9895   -45.7061     8.4039 H            1 FAD1588   0.0000
    77 H2'        -18.5942   -45.1374    10.2003 H            1 FAD1588   0.0000
    78 H25        -19.9342   -47.0630     8.7343 H            1 FAD1588   0.0000
    79 H3'        -19.9609   -43.9097     8.6014 H            1 FAD1588   0.0000
    80 H27        -19.4801   -44.1614     6.3658 H            1 FAD1588   0.0000
    81 H4'        -17.2230   -43.6145     7.7880 H            1 FAD1588   0.0000
    82 H29        -16.8138   -43.6165     9.9387 H            1 FAD1588   0.0000
    83 H5'1       -19.1502   -41.5611     8.3820 H            1 FAD1588   0.0000
    84 H5'2       -19.0519   -42.2199     6.8911 H            1 FAD1588   0.0000
@<TRIPOS>BOND
     1    1    2      ar
     2    1    3      ar
     3    1    4       1
     4    1   53       1
     5    4    5       1
     6    5    6       1
     7    6    7       1
     8    6    8       1
     9    7   12       1
    10    8    9       1
    11    8   10       1
    12   10   11       1
    13   10   12       1
    14   12   13       1
    15   13   14       1
    16   13   22       1
    17   14   15       2
    18   15   16       1
    19   16   17      ar
    20   16   22      ar
    21   17   18       1
    22   17   19      ar
    23   19   20      ar
    24   20   21      ar
    25   21   22      ar
    26   23   24       1
    27   23   40       2
    28   24   25       2
    29   24   26       1
    30   26   27       1
    31   27   28       2
    32   27   29       1
    33   29   30       2
    34   29   40       1
    35   30   31       1
    36   31   32      ar
    37   31   38      ar
    38   32   33      ar
    39   33   34       1
    40   33   35      ar
    41   35   36       1
    42   35   37      ar
    43   37   38      ar
    44   38   39       1
    45   39   40       1
    46   39   41       1
    47   41   42       1
    48   42   43       1
    49   42   44       1
    50   44   45       1
    51   44   46       1
    52   46   47       1
    53   46   48       1
    54   48   49       1
    55   49   50       1
    56   50   51      ar
    57   50   52      ar
    58   50   53       1
    59   48   84       1
    60    5   54       1
    61    5   55       1
    62    6   56       1
    63    8   57       1
    64    9   58       1
    65   10   59       1
    66   11   60       1
    67   12   61       1
    68   14   62       1
    69   18   63       1
    70   18   64       1
    71   20   65       1
    72   26   66       1
    73   32   67       1
    74   34   68       1
    75   34   69       1
    76   34   70       1
    77   36   71       1
    78   36   72       1
    79   36   73       1
    80   37   74       1
    81   41   75       1
    82   41   76       1
    83   42   77       1
    84   43   78       1
    85   44   79       1
    86   45   80       1
    87   46   81       1
    88   47   82       1
    89   48   83       1
@<TRIPOS>SUBSTRUCTURE
     1 FAD1588     1 GROUP             4 A     FAD     0 **** FAD A1588
