@<TRIPOS>MOLECULE
2pui_ADP_2_ligand
   39    41     1     0     0
SMALL
NO_CHARGES


@<TRIPOS>ATOM
     1 PB          71.1980    28.9420    14.3250 P.3          1 ADP999   0.0000
     2 O1B         70.2760    29.6960    13.4060 O.co2        1 ADP999   0.0000
     3 O2B         70.9300    27.4370    14.3640 O.co2        1 ADP999  -1.0000
     4 O3B         72.6780    29.2920    14.2470 O.co2        1 ADP999  -1.0000
     5 PA          71.3920    29.5550    17.1510 P.3          1 ADP999   0.0000
     6 O1A         70.6930    28.5740    18.0730 O.co2        1 ADP999   0.0000
     7 O2A         72.8890    29.4090    16.9450 O.co2        1 ADP999  -1.0000
     8 O3A         70.6620    29.5450    15.7200 O.3          1 ADP999   0.0000
     9 O5'         71.0550    31.0250    17.7320 O.3          1 ADP999   0.0000
    10 C5'         71.0970    32.1960    16.9030 C.3          1 ADP999   0.0000
    11 C4'         71.3480    33.4530    17.7380 C.3          1 ADP999   0.0000
    12 O4'         70.1540    33.8070    18.4520 O.3          1 ADP999   0.0000
    13 C3'         72.4200    33.2580    18.8060 C.3          1 ADP999   0.0000
    14 O3'         73.7470    33.5440    18.3750 O.3          1 ADP999   0.0000
    15 C2'         71.9790    34.1920    19.9190 C.3          1 ADP999   0.0000
    16 O2'         72.5260    35.5080    19.7540 O.3          1 ADP999   0.0000
    17 C1'         70.4510    34.1700    19.8010 C.3          1 ADP999   0.0000
    18 N9          70.0070    33.0860    20.7230 N.pl3        1 ADP999   0.0000
    19 C8          69.8460    31.7730    20.4290 C.2          1 ADP999   0.0000
    20 N7          69.4580    31.1110    21.5430 N.2          1 ADP999   0.0000
    21 C5          69.3940    32.0120    22.5470 C.ar         1 ADP999   0.0000
    22 C6          69.0710    31.9300    23.8910 C.ar         1 ADP999   0.0000
    23 N6          68.7250    30.7470    24.4480 N.pl3        1 ADP999   0.0000
    24 N1          69.0980    33.0590    24.6420 N.ar         1 ADP999   0.0000
    25 C2          69.4460    34.2430    24.1170 C.ar         1 ADP999   0.0000
    26 N3          69.7650    34.3500    22.8180 N.ar         1 ADP999   0.0000
    27 C4          69.7460    33.2560    22.0230 C.ar         1 ADP999   0.0000
    28 H5'1        70.2232    32.2899    16.4259 H            1 ADP999   0.0000
    29 H5'2        71.8332    32.0961    16.2337 H            1 ADP999   0.0000
    30 H4'         71.6114    34.2062    17.1353 H            1 ADP999   0.0000
    31 H3'         72.3815    32.3154    19.1376 H            1 ADP999   0.0000
    32 H5          74.2868    33.8694    19.1514 H            1 ADP999   0.0000
    33 H2'         72.2559    33.8185    20.8044 H            1 ADP999   0.0000
    34 H7          72.2156    36.0942    20.5024 H            1 ADP999   0.0000
    35 H1'         70.0478    35.0520    20.0447 H            1 ADP999   0.0000
    36 H9          69.9911    31.3589    19.5304 H            1 ADP999   0.0000
    37 H10         68.4938    30.7005    25.4198 H            1 ADP999   0.0000
    38 H11         68.7004    29.9189    23.8880 H            1 ADP999   0.0000
    39 H12         69.4680    35.0551    24.7001 H            1 ADP999   0.0000
@<TRIPOS>BOND
     1    1    2      ar
     2    1    3      ar
     3    1    4      ar
     4    1    8       1
     5    5    6      ar
     6    5    7      ar
     7    5    8       1
     8    5    9       1
     9    9   10       1
    10   10   11       1
    11   11   12       1
    12   11   13       1
    13   12   17       1
    14   13   14       1
    15   13   15       1
    16   15   16       1
    17   15   17       1
    18   17   18       1
    19   18   19       1
    20   18   27       1
    21   19   20       2
    22   20   21       1
    23   21   22      ar
    24   21   27      ar
    25   22   23       1
    26   22   24      ar
    27   24   25      ar
    28   25   26      ar
    29   26   27      ar
    30   25   39       1
    31   23   38       1
    32   23   37       1
    33   10   28       1
    34   10   29       1
    35   11   30       1
    36   13   31       1
    37   14   32       1
    38   15   33       1
    39   16   34       1
    40   17   35       1
    41   19   36       1
@<TRIPOS>SUBSTRUCTURE
     1 ADP999      1 GROUP             4 A     ADP     0 **** ADP A 999
