@<TRIPOS>MOLECULE
4bfx_ZVX_2_ligand
   49    51     1     0     0
SMALL
NO_CHARGES


@<TRIPOS>ATOM
     1 F9         -71.1230   -16.0170    16.1310 F            1 ZVX501   0.0000
     2 C6         -71.2380   -15.2540    17.2290 C.ar         1 ZVX501   0.0000
     3 C7         -70.2830   -15.3730    18.2420 C.ar         1 ZVX501   0.0000
     4 C8         -70.3920   -14.5820    19.3820 C.ar         1 ZVX501   0.0000
     5 C5         -72.3060   -14.3590    17.3380 C.ar         1 ZVX501   0.0000
     6 C4         -72.4090   -13.5700    18.4780 C.ar         1 ZVX501   0.0000
     7 C3         -71.4540   -13.6800    19.5020 C.ar         1 ZVX501   0.0000
     8 O2         -71.5130   -12.9180    20.6500 O.3          1 ZVX501   0.0000
     9 C1         -72.5560   -11.9950    20.9720 C.3          1 ZVX501   0.0000
    10 C10        -72.8680   -11.0760    19.7980 C.3          1 ZVX501   0.0000
    11 S11        -72.1710    -9.4840    20.0560 S.3          1 ZVX501   0.0000
    12 C12        -70.4520    -9.6690    19.8520 C.2          1 ZVX501   0.0000
    13 N13        -69.9280   -10.3630    18.8590 N.2          1 ZVX501   0.0000
    14 N14        -68.6450   -10.2650    19.0700 N.2          1 ZVX501   0.0000
    15 N16        -69.5730    -9.1470    20.6840 N.pl3        1 ZVX501   0.0000
    16 C17        -69.8580    -8.3230    21.8840 C.3          1 ZVX501   0.0000
    17 C15        -68.4010    -9.5390    20.1760 C.2          1 ZVX501   0.0000
    18 C18        -67.0430    -9.2370    20.7020 C.3          1 ZVX501   0.0000
    19 C19        -66.3000    -8.1890    19.9460 C.3          1 ZVX501   0.0000
    20 N20        -66.3100   -10.1320    21.3690 N.am         1 ZVX501   0.0000
    21 C21        -66.7090   -11.3610    21.7040 C.2          1 ZVX501   0.0000
    22 O28        -67.8530   -11.5570    22.0440 O.2          1 ZVX501   0.0000
    23 C22        -65.7690   -12.5440    21.7330 C.ar         1 ZVX501   0.0000
    24 C27        -66.0760   -13.7080    21.0320 C.ar         1 ZVX501   0.0000
    25 F30        -67.2060   -13.7780    20.3070 F            1 ZVX501   0.0000
    26 C23        -64.5990   -12.5130    22.4810 C.ar         1 ZVX501   0.0000
    27 F29        -64.2880   -11.4160    23.1690 F            1 ZVX501   0.0000
    28 C24        -63.7310   -13.6050    22.5230 C.ar         1 ZVX501   0.0000
    29 C25        -64.0370   -14.7630    21.8120 C.ar         1 ZVX501   0.0000
    30 C26        -65.2130   -14.8120    21.0640 C.ar         1 ZVX501   0.0000
    31 H1         -69.5273   -16.0212    18.1487 H            1 ZVX501   0.0000
    32 H2         -69.7134   -14.6584    20.1126 H            1 ZVX501   0.0000
    33 H3         -72.9852   -14.2873    16.6076 H            1 ZVX501   0.0000
    34 H4         -73.1653   -12.9222    18.5692 H            1 ZVX501   0.0000
    35 H5         -72.2692   -11.4396    21.7525 H            1 ZVX501   0.0000
    36 H6         -73.3807   -12.5070    21.2123 H            1 ZVX501   0.0000
    37 H7         -73.8597   -10.9891    19.7033 H            1 ZVX501   0.0000
    38 H8         -72.4866   -11.4701    18.9618 H            1 ZVX501   0.0000
    39 H9         -68.9975    -8.0654    22.3235 H            1 ZVX501   0.0000
    40 H10        -70.3534    -7.4980    21.6119 H            1 ZVX501   0.0000
    41 H11        -70.4153    -8.8501    22.5256 H            1 ZVX501   0.0000
    42 H12        -67.3187    -8.6753    21.4821 H            1 ZVX501   0.0000
    43 H13        -65.4026    -8.0493    20.3644 H            1 ZVX501   0.0000
    44 H14        -66.1834    -8.4821    18.9971 H            1 ZVX501   0.0000
    45 H15        -66.8156    -7.3325    19.9693 H            1 ZVX501   0.0000
    46 H16        -65.3868    -9.8593    21.6396 H            1 ZVX501   0.0000
    47 H17        -62.8906   -13.5562    23.0627 H            1 ZVX501   0.0000
    48 H18        -63.4206   -15.5500    21.8376 H            1 ZVX501   0.0000
    49 H19        -65.4414   -15.6379    20.5485 H            1 ZVX501   0.0000
@<TRIPOS>BOND
     1    1    2       1
     2    2    3      ar
     3    2    5      ar
     4    3    4      ar
     5    4    7      ar
     6    5    6      ar
     7    6    7      ar
     8    7    8       1
     9    8    9       1
    10    9   10       1
    11   10   11       1
    12   11   12       1
    13   12   13       2
    14   12   15       1
    15   13   14       1
    16   14   17       2
    17   15   16       1
    18   15   17       1
    19   17   18       1
    20   18   19       1
    21   18   20       1
    22   20   21      am
    23   21   22       2
    24   21   23       1
    25   23   24      ar
    26   23   26      ar
    27   24   25       1
    28   24   30      ar
    29   26   27       1
    30   26   28      ar
    31   28   29      ar
    32   29   30      ar
    33    3   31       1
    34    4   32       1
    35    5   33       1
    36    6   34       1
    37    9   35       1
    38    9   36       1
    39   10   37       1
    40   10   38       1
    41   16   39       1
    42   16   40       1
    43   16   41       1
    44   18   42       1
    45   19   43       1
    46   19   44       1
    47   19   45       1
    48   20   46       1
    49   28   47       1
    50   29   48       1
    51   30   49       1
@<TRIPOS>SUBSTRUCTURE
     1 ZVX501      1 GROUP             4 B     ZVX     0 **** ZVX B 501
