@<TRIPOS>MOLECULE
2y48_FAD_1_ligand
   84    89     1     0     0
SMALL
NO_CHARGES


@<TRIPOS>ATOM
     1 PA          -6.4730    68.8240    88.2110 P.3          1 FAD900   0.0000
     2 O1A         -5.5820    69.2690    87.0670 O.co2        1 FAD900   0.0000
     3 O2A         -7.8480    68.2780    87.8560 O.co2        1 FAD900  -1.0000
     4 O5B         -6.6850    70.1370    89.1340 O.3          1 FAD900   0.0000
     5 C5B         -5.7550    71.2100    89.1530 C.3          1 FAD900   0.0000
     6 C4B         -6.5480    72.4890    89.0540 C.3          1 FAD900   0.0000
     7 O4B         -5.7080    73.5960    89.2450 O.3          1 FAD900   0.0000
     8 C3B         -7.1170    72.6350    87.6700 C.3          1 FAD900   0.0000
     9 O3B         -8.4870    72.8680    87.8730 O.3          1 FAD900   0.0000
    10 C2B         -6.3540    73.8230    87.0810 C.3          1 FAD900   0.0000
    11 O2B         -7.0760    74.5420    86.1060 O.3          1 FAD900   0.0000
    12 C1B         -6.0410    74.6070    88.3330 C.3          1 FAD900   0.0000
    13 N9A         -4.8470    75.4320    88.2810 N.pl3        1 FAD900   0.0000
    14 C8A         -3.6350    75.1490    87.7140 C.2          1 FAD900   0.0000
    15 N7A         -2.7980    76.1950    87.9490 N.2          1 FAD900   0.0000
    16 C5A         -3.4730    77.1240    88.6870 C.ar         1 FAD900   0.0000
    17 C6A         -3.1290    78.3780    89.2150 C.ar         1 FAD900   0.0000
    18 N6A         -2.0980    79.0500    88.7160 N.pl3        1 FAD900   0.0000
    19 N1A         -4.0750    79.0740    89.9310 N.ar         1 FAD900   0.0000
    20 C2A         -5.3530    78.5820    90.1370 C.ar         1 FAD900   0.0000
    21 N3A         -5.6720    77.3600    89.6250 N.ar         1 FAD900   0.0000
    22 C4A         -4.7630    76.6430    88.9090 C.ar         1 FAD900   0.0000
    23 N1          -7.9640    59.1230    85.4240 N.2          1 FAD900   0.0000
    24 C2          -8.7730    58.0130    85.5840 C.2          1 FAD900   0.0000
    25 O2          -9.0060    57.5870    86.7060 O.2          1 FAD900   0.0000
    26 N3          -9.3310    57.3680    84.5000 N.pl3        1 FAD900   0.0000
    27 C4          -9.0960    57.8480    83.2300 C.2          1 FAD900   0.0000
    28 O4          -9.5900    57.3100    82.2360 O.2          1 FAD900   0.0000
    29 C4X         -8.2920    58.9570    83.0560 C.2          1 FAD900   0.0000
    30 N5          -8.0800    59.4030    81.7700 N.2          1 FAD900   0.0000
    31 C5X         -7.2920    60.5080    81.5540 C.ar         1 FAD900   0.0000
    32 C6          -7.1090    60.9400    80.2520 C.ar         1 FAD900   0.0000
    33 C7          -6.3430    62.0540    80.0060 C.ar         1 FAD900   0.0000
    34 C7M         -6.1390    62.5060    78.5930 C.3          1 FAD900   0.0000
    35 C8          -5.7650    62.7360    81.0720 C.ar         1 FAD900   0.0000
    36 C8M         -4.9430    63.9570    80.8150 C.3          1 FAD900   0.0000
    37 C9          -5.9430    62.3040    82.3850 C.ar         1 FAD900   0.0000
    38 C9A         -6.7100    61.1740    82.6330 C.ar         1 FAD900   0.0000
    39 N10         -6.9270    60.7340    83.9360 N.pl3        1 FAD900   0.0000
    40 C10         -7.7210    59.6080    84.1510 C.2          1 FAD900   0.0000
    41 C1'         -6.2630    61.4540    85.0750 C.3          1 FAD900   0.0000
    42 C2'         -7.1670    62.2810    85.9400 C.3          1 FAD900   0.0000
    43 O2'         -7.8220    63.1180    85.0370 O.3          1 FAD900   0.0000
    44 C3'         -6.3340    63.1600    86.8610 C.3          1 FAD900   0.0000
    45 O3'         -5.3470    62.4670    87.6050 O.3          1 FAD900   0.0000
    46 C4'         -7.2300    63.8800    87.8400 C.3          1 FAD900   0.0000
    47 O4'         -8.3920    64.3530    87.1810 O.3          1 FAD900   0.0000
    48 C5'         -6.4040    65.0230    88.4210 C.3          1 FAD900   0.0000
    49 O5'         -7.1660    65.8070    89.3110 O.3          1 FAD900   0.0000
    50 P           -6.3460    66.8240    90.2020 P.3          1 FAD900   0.0000
    51 O1P         -7.3090    67.4710    91.1690 O.co2        1 FAD900   0.0000
    52 O2P         -5.1610    66.2130    90.9540 O.co2        1 FAD900  -1.0000
    53 O3P         -5.6810    67.8380    89.1600 O.3          1 FAD900   0.0000
    54 H5B1        -5.1286    71.1343    88.3772 H            1 FAD900   0.0000
    55 H5B2        -5.2328    71.1958    90.0057 H            1 FAD900   0.0000
    56 H4B         -7.2833    72.4926    89.7317 H            1 FAD900   0.0000
    57 H3B         -6.9681    71.8069    87.1296 H            1 FAD900   0.0000
    58 H5          -8.6070    73.7002    88.4143 H            1 FAD900   0.0000
    59 H2B         -5.4992    73.4951    86.6787 H            1 FAD900   0.0000
    60 H7          -7.9159    74.9026    86.5117 H            1 FAD900   0.0000
    61 H1B         -6.8339    75.1316    88.6430 H            1 FAD900   0.0000
    62 H8A         -3.4037    74.3154    87.2123 H            1 FAD900   0.0000
    63 H6A1        -1.8538    79.9434    89.0930 H            1 FAD900   0.0000
    64 H6A2        -1.5658    78.6626    87.9632 H            1 FAD900   0.0000
    65 H2A         -6.0276    79.1122    90.6506 H            1 FAD900   0.0000
    66 H13         -9.9018    56.5581    84.6348 H            1 FAD900   0.0000
    67 H14         -7.5322    60.4438    79.4939 H            1 FAD900   0.0000
    68 H7M1        -5.5630    63.3234    78.5844 H            1 FAD900   0.0000
    69 H7M2        -5.6932    61.7785    78.0714 H            1 FAD900   0.0000
    70 H7M3        -7.0246    62.7179    78.1797 H            1 FAD900   0.0000
    71 H8M1        -4.6055    64.3204    81.6833 H            1 FAD900   0.0000
    72 H8M2        -4.1681    63.7199    80.2291 H            1 FAD900   0.0000
    73 H8M3        -5.5053    64.6478    80.3605 H            1 FAD900   0.0000
    74 H21         -5.5218    62.8038    83.1419 H            1 FAD900   0.0000
    75 H1'1        -5.5670    62.0605    84.6906 H            1 FAD900   0.0000
    76 H1'2        -5.8239    60.7692    85.6566 H            1 FAD900   0.0000
    77 H2'         -7.8108    61.7129    86.4526 H            1 FAD900   0.0000
    78 H25         -7.2251    63.2968    84.2549 H            1 FAD900   0.0000
    79 H3'         -5.8730    63.8473    86.2997 H            1 FAD900   0.0000
    80 H27         -4.7099    62.0192    86.9776 H            1 FAD900   0.0000
    81 H4'         -7.4943    63.2534    88.5732 H            1 FAD900   0.0000
    82 H29         -8.3529    64.1008    86.2141 H            1 FAD900   0.0000
    83 H5'1        -6.0789    65.6023    87.6735 H            1 FAD900   0.0000
    84 H5'2        -5.6208    64.6417    88.9120 H            1 FAD900   0.0000
@<TRIPOS>BOND
     1    1    2      ar
     2    1    3      ar
     3    1    4       1
     4    1   53       1
     5    4    5       1
     6    5    6       1
     7    6    7       1
     8    6    8       1
     9    7   12       1
    10    8    9       1
    11    8   10       1
    12   10   11       1
    13   10   12       1
    14   12   13       1
    15   13   14       1
    16   13   22       1
    17   14   15       2
    18   15   16       1
    19   16   17      ar
    20   16   22      ar
    21   17   18       1
    22   17   19      ar
    23   19   20      ar
    24   20   21      ar
    25   21   22      ar
    26   23   24       1
    27   23   40       2
    28   24   25       2
    29   24   26       1
    30   26   27       1
    31   27   28       2
    32   27   29       1
    33   29   30       2
    34   29   40       1
    35   30   31       1
    36   31   32      ar
    37   31   38      ar
    38   32   33      ar
    39   33   34       1
    40   33   35      ar
    41   35   36       1
    42   35   37      ar
    43   37   38      ar
    44   38   39       1
    45   39   40       1
    46   39   41       1
    47   41   42       1
    48   42   43       1
    49   42   44       1
    50   44   45       1
    51   44   46       1
    52   46   47       1
    53   46   48       1
    54   48   49       1
    55   49   50       1
    56   50   51      ar
    57   50   52      ar
    58   50   53       1
    59   48   84       1
    60    5   54       1
    61    5   55       1
    62    6   56       1
    63    8   57       1
    64    9   58       1
    65   10   59       1
    66   11   60       1
    67   12   61       1
    68   14   62       1
    69   18   63       1
    70   18   64       1
    71   20   65       1
    72   26   66       1
    73   32   67       1
    74   34   68       1
    75   34   69       1
    76   34   70       1
    77   36   71       1
    78   36   72       1
    79   36   73       1
    80   37   74       1
    81   41   75       1
    82   41   76       1
    83   42   77       1
    84   43   78       1
    85   44   79       1
    86   45   80       1
    87   46   81       1
    88   47   82       1
    89   48   83       1
@<TRIPOS>SUBSTRUCTURE
     1 FAD900      1 GROUP             4 A     FAD     0 **** FAD A 900
