@<TRIPOS>MOLECULE
4c5b_ADP_2_ligand
   39    41     1     0     0
SMALL
NO_CHARGES


@<TRIPOS>ATOM
     1 PB          11.5370    31.3700    63.8530 P.3          1 ADP310   0.0000
     2 O1B         11.5320    32.6900    63.1090 O.co2        1 ADP310   0.0000
     3 O2B         10.1570    30.7550    64.0200 O.co2        1 ADP310  -1.0000
     4 O3B         12.5650    30.4670    63.2280 O.co2        1 ADP310  -1.0000
     5 PA          11.3050    31.5970    66.7820 P.3          1 ADP310   0.0000
     6 O1A          9.8150    31.6720    66.5920 O.co2        1 ADP310   0.0000
     7 O2A         11.9740    32.5430    67.7310 O.co2        1 ADP310  -1.0000
     8 O3A         12.0800    31.6850    65.3520 O.3          1 ADP310   0.0000
     9 O5'         11.7000    30.1390    67.3520 O.3          1 ADP310   0.0000
    10 C5'         11.2890    28.9270    66.6550 C.3          1 ADP310   0.0000
    11 C4'         10.7870    27.9220    67.7010 C.3          1 ADP310   0.0000
    12 O4'         11.8060    27.6460    68.6590 O.3          1 ADP310   0.0000
    13 C3'          9.6120    28.3930    68.5530 C.3          1 ADP310   0.0000
    14 O3'          8.4120    28.2420    67.7730 O.3          1 ADP310   0.0000
    15 C2'          9.7140    27.6090    69.8450 C.3          1 ADP310   0.0000
    16 O2'          9.2320    26.2740    69.6570 O.3          1 ADP310   0.0000
    17 C1'         11.2080    27.5430    69.9560 C.3          1 ADP310   0.0000
    18 N9          11.8110    28.5710    70.8490 N.pl3        1 ADP310   0.0000
    19 C8          12.2210    29.7960    70.4440 C.2          1 ADP310   0.0000
    20 N7          12.7770    30.4620    71.4450 N.2          1 ADP310   0.0000
    21 C5          12.7160    29.6510    72.5410 C.ar         1 ADP310   0.0000
    22 C6          13.1740    29.7260    73.9070 C.ar         1 ADP310   0.0000
    23 N6          13.7810    30.8310    74.3610 N.pl3        1 ADP310   0.0000
    24 N1          12.9440    28.6520    74.6800 N.ar         1 ADP310   0.0000
    25 C2          12.3380    27.5210    74.2420 C.ar         1 ADP310   0.0000
    26 N3          11.9020    27.3550    72.9730 N.ar         1 ADP310   0.0000
    27 C4          12.0690    28.4080    72.1260 C.ar         1 ADP310   0.0000
    28 H5'1        12.0670    28.5405    66.1597 H            1 ADP310   0.0000
    29 H5'2        10.5553    29.1395    66.0096 H            1 ADP310   0.0000
    30 H4'         10.5345    27.0712    67.2401 H            1 ADP310   0.0000
    31 H3'          9.7374    29.3635    68.7591 H            1 ADP310   0.0000
    32 H5           7.6392    28.0622    68.3817 H            1 ADP310   0.0000
    33 H2'          9.2848    28.0741    70.6193 H            1 ADP310   0.0000
    34 H7           8.2516    26.2431    69.8516 H            1 ADP310   0.0000
    35 H1'         11.4439    26.6448    70.3269 H            1 ADP310   0.0000
    36 H9          12.1180    30.1503    69.5146 H            1 ADP310   0.0000
    37 H10         14.0955    30.8750    75.3092 H            1 ADP310   0.0000
    38 H11         13.9195    31.6117    73.7516 H            1 ADP310   0.0000
    39 H12         12.2068    26.7713    74.8907 H            1 ADP310   0.0000
@<TRIPOS>BOND
     1    1    2      ar
     2    1    3      ar
     3    1    4      ar
     4    1    8       1
     5    5    6      ar
     6    5    7      ar
     7    5    8       1
     8    5    9       1
     9    9   10       1
    10   10   11       1
    11   11   12       1
    12   11   13       1
    13   12   17       1
    14   13   14       1
    15   13   15       1
    16   15   16       1
    17   15   17       1
    18   17   18       1
    19   18   19       1
    20   18   27       1
    21   19   20       2
    22   20   21       1
    23   21   22      ar
    24   21   27      ar
    25   22   23       1
    26   22   24      ar
    27   24   25      ar
    28   25   26      ar
    29   26   27      ar
    30   25   39       1
    31   23   38       1
    32   23   37       1
    33   10   28       1
    34   10   29       1
    35   11   30       1
    36   13   31       1
    37   14   32       1
    38   15   33       1
    39   16   34       1
    40   17   35       1
    41   19   36       1
@<TRIPOS>SUBSTRUCTURE
     1 ADP310      1 GROUP             4 A     ADP     0 **** ADP A 310
