@<TRIPOS>MOLECULE
4q4k_FMN_2_ligand
   50    52     1     0     0
SMALL
NO_CHARGES


@<TRIPOS>ATOM
     1 N1         -38.1100    24.5330   113.1920 N.2          1 FMN401   0.0000
     2 C2         -38.5600    25.7540   113.5970 C.2          1 FMN401   0.0000
     3 O2         -38.1200    26.1240   114.8360 O.2          1 FMN401   0.0000
     4 N3         -39.5170    26.3890   112.8830 N.pl3        1 FMN401   0.0000
     5 C4         -39.8540    25.9670   111.6260 C.2          1 FMN401   0.0000
     6 O4         -40.6920    26.5720   110.9620 O.2          1 FMN401   0.0000
     7 C4A        -39.2980    24.7920   111.1150 C.2          1 FMN401   0.0000
     8 N5         -39.8190    24.2370   109.9830 N.2          1 FMN401   0.0000
     9 C5A        -39.7080    22.8900   109.7070 C.ar         1 FMN401   0.0000
    10 C6         -40.5770    22.2450   108.7930 C.ar         1 FMN401   0.0000
    11 C7         -40.5670    20.8220   108.6560 C.ar         1 FMN401   0.0000
    12 C7M        -41.5450    20.1180   107.7100 C.3          1 FMN401   0.0000
    13 C8         -39.6720    20.0720   109.4150 C.ar         1 FMN401   0.0000
    14 C8M        -39.5360    18.5480   109.2980 C.3          1 FMN401   0.0000
    15 C9         -38.8050    20.7260   110.3280 C.ar         1 FMN401   0.0000
    16 C9A        -38.9910    22.0940   110.6290 C.ar         1 FMN401   0.0000
    17 N10        -38.1810    22.7600   111.5880 N.pl3        1 FMN401   0.0000
    18 C10        -38.5220    24.0160   111.9810 C.2          1 FMN401   0.0000
    19 C1'        -37.1810    22.0420   112.3790 C.3          1 FMN401   0.0000
    20 C2'        -37.7390    21.3090   113.6010 C.3          1 FMN401   0.0000
    21 O2'        -37.9770    22.2950   114.6450 O.3          1 FMN401   0.0000
    22 C3'        -36.7820    20.2340   114.1040 C.3          1 FMN401   0.0000
    23 O3'        -35.4070    20.6930   114.3320 O.3          1 FMN401   0.0000
    24 C4'        -36.7300    18.9950   113.1910 C.3          1 FMN401   0.0000
    25 O4'        -38.1030    18.6430   112.8860 O.3          1 FMN401   0.0000
    26 C5'        -36.1620    17.8380   113.9790 C.3          1 FMN401   0.0000
    27 O5'        -35.9500    16.6690   113.1580 O.3          1 FMN401   0.0000
    28 P          -36.9880    15.6060   112.7160 P.3          1 FMN401   0.0000
    29 O1P        -36.1140    14.5310   112.3040 O.co2        1 FMN401   0.0000
    30 O2P        -37.7800    16.2300   111.6650 O.co2        1 FMN401  -1.0000
    31 O3P        -37.8790    15.3070   113.8890 O.co2        1 FMN401  -1.0000
    32 H1         -39.9852    27.1786   113.2796 H            1 FMN401   0.0000
    33 H2         -41.2043    22.7909   108.2376 H            1 FMN401   0.0000
    34 H7M1       -41.3913    19.1305   107.7461 H            1 FMN401   0.0000
    35 H7M2       -42.4835    20.3197   107.9903 H            1 FMN401   0.0000
    36 H7M3       -41.3986    20.4442   106.7761 H            1 FMN401   0.0000
    37 H8M1       -38.8359    18.2259   109.9353 H            1 FMN401   0.0000
    38 H8M2       -40.4111    18.1173   109.5186 H            1 FMN401   0.0000
    39 H8M3       -39.2723    18.3076   108.3638 H            1 FMN401   0.0000
    40 H9         -38.0601    20.2173   110.7597 H            1 FMN401   0.0000
    41 H1'1       -36.5010    22.7032   112.6959 H            1 FMN401   0.0000
    42 H1'2       -36.7398    21.3683   111.7861 H            1 FMN401   0.0000
    43 H2'        -38.6083    20.8807   113.3542 H            1 FMN401   0.0000
    44 H13        -38.2000    23.1757   114.2271 H            1 FMN401   0.0000
    45 H3'        -37.1334    19.9260   114.9881 H            1 FMN401   0.0000
    46 H15        -35.4081    21.4216   115.0169 H            1 FMN401   0.0000
    47 H4'        -36.2011    19.1707   112.3607 H            1 FMN401   0.0000
    48 H17        -38.1168    17.8388   112.2918 H            1 FMN401   0.0000
    49 H5'1       -36.7999    17.6045   114.7129 H            1 FMN401   0.0000
    50 H5'2       -35.2867    18.1167   114.3743 H            1 FMN401   0.0000
@<TRIPOS>BOND
     1    1    2       1
     2    1   18       2
     3    2    3       2
     4    2    4       1
     5    4    5       1
     6    5    6       2
     7    5    7       1
     8    7    8       2
     9    7   18       1
    10    8    9       1
    11    9   10      ar
    12    9   16      ar
    13   10   11      ar
    14   11   12       1
    15   11   13      ar
    16   13   14       1
    17   13   15      ar
    18   15   16      ar
    19   16   17       1
    20   17   18       1
    21   17   19       1
    22   19   20       1
    23   20   21       1
    24   20   22       1
    25   22   23       1
    26   22   24       1
    27   24   25       1
    28   24   26       1
    29   26   27       1
    30   27   28       1
    31   28   29      ar
    32   28   30      ar
    33   28   31      ar
    34    4   32       1
    35   10   33       1
    36   12   34       1
    37   12   35       1
    38   12   36       1
    39   14   37       1
    40   14   38       1
    41   14   39       1
    42   15   40       1
    43   19   41       1
    44   19   42       1
    45   20   43       1
    46   21   44       1
    47   22   45       1
    48   23   46       1
    49   24   47       1
    50   25   48       1
    51   26   49       1
    52   26   50       1
@<TRIPOS>SUBSTRUCTURE
     1 FMN401      1 GROUP             4 B     FMN     0 **** FMN B 401
