@<TRIPOS>MOLECULE
2x3j_ATP_2_ligand
   43    45     1     0     0
SMALL
NO_CHARGES


@<TRIPOS>ATOM
     1 PG          -6.7070    -5.5790   -37.2490 P.3          1 ATP1588   0.0000
     2 O1G         -7.4720    -5.7360   -35.9440 O.co2        1 ATP1588   0.0000
     3 O2G         -5.9610    -4.2690   -37.2970 O.co2        1 ATP1588  -1.0000
     4 O3G         -7.4550    -5.9610   -38.5020 O.co2        1 ATP1588  -1.0000
     5 PB          -5.4610    -8.2190   -36.9910 P.3          1 ATP1588   0.0000
     6 O1B         -3.9880    -8.6050   -37.0230 O.co2        1 ATP1588   0.0000
     7 O2B         -6.3240    -8.8800   -38.0270 O.co2        1 ATP1588  -1.0000
     8 O3B         -5.4540    -6.6180   -37.2050 O.3          1 ATP1588   0.0000
     9 PA          -6.5380    -9.8150   -34.8290 P.3          1 ATP1588   0.0000
    10 O1A         -7.9490    -9.5840   -34.3190 O.co2        1 ATP1588   0.0000
    11 O2A         -6.2040   -10.9860   -35.7500 O.co2        1 ATP1588  -1.0000
    12 O3A         -6.0710    -8.4190   -35.5160 O.3          1 ATP1588   0.0000
    13 O5'         -5.4950    -9.9830   -33.5880 O.3          1 ATP1588   0.0000
    14 C5'         -5.4910    -9.1370   -32.4490 C.3          1 ATP1588   0.0000
    15 C4'         -4.1790    -8.3430   -32.3920 C.3          1 ATP1588   0.0000
    16 O4'         -4.2990    -7.5100   -31.2320 O.3          1 ATP1588   0.0000
    17 C3'         -2.9450    -9.1890   -32.1190 C.3          1 ATP1588   0.0000
    18 O3'         -1.7600    -8.4820   -32.5380 O.3          1 ATP1588   0.0000
    19 C2'         -2.9500    -9.3160   -30.6010 C.3          1 ATP1588   0.0000
    20 O2'         -1.6480    -9.5500   -30.0560 O.3          1 ATP1588   0.0000
    21 C1'         -3.4500    -7.9420   -30.1610 C.3          1 ATP1588   0.0000
    22 N9          -4.1600    -7.9630   -28.8490 N.pl3        1 ATP1588   0.0000
    23 C8          -3.8170    -7.2090   -27.7840 C.2          1 ATP1588   0.0000
    24 N7          -4.6510    -7.4300   -26.7280 N.2          1 ATP1588   0.0000
    25 C5          -5.5480    -8.3570   -27.1340 C.ar         1 ATP1588   0.0000
    26 C6          -6.6980    -9.0440   -26.5210 C.ar         1 ATP1588   0.0000
    27 N6          -7.0240    -8.7620   -25.2380 N.pl3        1 ATP1588   0.0000
    28 N1          -7.3880    -9.9380   -27.2720 N.ar         1 ATP1588   0.0000
    29 C2          -7.0500   -10.2270   -28.5420 C.ar         1 ATP1588   0.0000
    30 N3          -5.9990    -9.6480   -29.1700 N.ar         1 ATP1588   0.0000
    31 C4          -5.2240    -8.7130   -28.5280 C.ar         1 ATP1588   0.0000
    32 H5'1        -5.5780    -9.6933   -31.6226 H            1 ATP1588   0.0000
    33 H5'2        -6.2609    -8.5014   -32.5055 H            1 ATP1588   0.0000
    34 H4'         -4.0588    -7.7914   -33.2174 H            1 ATP1588   0.0000
    35 H3'         -3.0112   -10.0839   -32.5603 H            1 ATP1588   0.0000
    36 H5          -1.8162    -8.2885   -33.5175 H            1 ATP1588   0.0000
    37 H2'         -3.5861   -10.0308   -30.3104 H            1 ATP1588   0.0000
    38 H7          -1.2775   -10.3998   -30.4309 H            1 ATP1588   0.0000
    39 H1'         -2.6698    -7.3198   -30.0962 H            1 ATP1588   0.0000
    40 H9          -3.0486    -6.5692   -27.7707 H            1 ATP1588   0.0000
    41 H10         -7.8019    -9.2199   -24.8075 H            1 ATP1588   0.0000
    42 H11         -6.4870    -8.0958   -24.7205 H            1 ATP1588   0.0000
    43 H12         -7.5976   -10.8972   -29.0430 H            1 ATP1588   0.0000
@<TRIPOS>BOND
     1    1    2      ar
     2    1    3      ar
     3    1    4      ar
     4    1    8       1
     5    5    6      ar
     6    5    7      ar
     7    5    8       1
     8    5   12       1
     9    9   10      ar
    10    9   11      ar
    11    9   12       1
    12    9   13       1
    13   13   14       1
    14   14   15       1
    15   15   16       1
    16   15   17       1
    17   16   21       1
    18   17   18       1
    19   17   19       1
    20   19   20       1
    21   19   21       1
    22   21   22       1
    23   22   23       1
    24   22   31       1
    25   23   24       2
    26   24   25       1
    27   25   26      ar
    28   25   31      ar
    29   26   27       1
    30   26   28      ar
    31   28   29      ar
    32   29   30      ar
    33   30   31      ar
    34   29   43       1
    35   27   42       1
    36   27   41       1
    37   23   40       1
    38   14   32       1
    39   14   33       1
    40   15   34       1
    41   17   35       1
    42   18   36       1
    43   19   37       1
    44   20   38       1
    45   21   39       1
@<TRIPOS>SUBSTRUCTURE
     1 ATP1588     1 GROUP             4 B     ATP     0 **** ATP B1588
