@<TRIPOS>MOLECULE
1kw0_H4B_1_ligand
   32    33     1     0     0
SMALL
NO_CHARGES


@<TRIPOS>ATOM
     1 N1          -4.8370    21.7930     8.0010 N.2          1 H4B429   0.0000
     2 C2          -3.8580    20.9680     8.4830 C.2          1 H4B429   0.0000
     3 N2          -4.0930    19.7480     8.9280 N.pl3        1 H4B429   0.0000
     4 N3          -2.5630    21.4530     8.4820 N.pl3        1 H4B429   0.0000
     5 C4          -2.1730    22.7620     8.0280 C.2          1 H4B429   0.0000
     6 O4          -0.9830    23.0640     8.0750 O.2          1 H4B429   0.0000
     7 C4A         -3.2620    23.5610     7.5370 C.2          1 H4B429   0.0000
     8 C8A         -4.5880    23.0840     7.5370 C.2          1 H4B429   0.0000
     9 N5          -2.9810    24.9140     7.0430 N.pl3        1 H4B429   0.0000
    10 N8          -5.6180    23.8380     7.0670 N.pl3        1 H4B429   0.0000
    11 C6          -4.1690    25.8890     7.1640 C.3          1 H4B429   0.0000
    12 C7          -5.4140    25.2270     6.5510 C.3          1 H4B429   0.0000
    13 C9          -3.6450    27.2240     6.5110 C.3          1 H4B429   0.0000
    14 O9          -3.2290    27.0210     5.1550 O.3          1 H4B429   0.0000
    15 C10         -4.6780    28.4220     6.4860 C.3          1 H4B429   0.0000
    16 C11         -5.1480    28.8270     7.8510 C.3          1 H4B429   0.0000
    17 O10         -5.7800    28.0280     5.6620 O.3          1 H4B429   0.0000
    18 H1          -3.3393    19.1867     9.2699 H            1 H4B429   0.0000
    19 H2          -5.0247    19.3849     8.9233 H            1 H4B429   0.0000
    20 H3          -2.0960    25.1803     6.6611 H            1 H4B429   0.0000
    21 H4          -6.5403    23.4516     7.0664 H            1 H4B429   0.0000
    22 H5          -4.3440    26.0574     8.1341 H            1 H4B429   0.0000
    23 H6          -6.2176    25.7774     6.7776 H            1 H4B429   0.0000
    24 H7          -5.3046    25.1901     5.5577 H            1 H4B429   0.0000
    25 H8          -2.8457    27.5233     7.0321 H            1 H4B429   0.0000
    26 H9          -2.4978    27.6652     4.9307 H            1 H4B429   0.0000
    27 H10         -4.2340    29.2104     6.0603 H            1 H4B429   0.0000
    28 H11         -5.7955    29.5847     7.7694 H            1 H4B429   0.0000
    29 H12         -5.5974    28.0506     8.2928 H            1 H4B429   0.0000
    30 H13         -4.3645    29.1159     8.4012 H            1 H4B429   0.0000
    31 H14         -6.4516    28.7681     5.6273 H            1 H4B429   0.0000
    32 H15         -1.8429    20.8484     8.8225 H            1 H4B429   0.0000
@<TRIPOS>BOND
     1    1    2       2
     2    1    8       1
     3    2    3       1
     4    2    4       1
     5    4    5       1
     6    5    6       2
     7    5    7       1
     8    7    8       2
     9    7    9       1
    10    8   10       1
    11    9   11       1
    12   10   12       1
    13   11   12       1
    14   11   13       1
    15   13   14       1
    16   13   15       1
    17   15   16       1
    18   15   17       1
    19   17   31       1
    20    3   18       1
    21    3   19       1
    22    9   20       1
    23   10   21       1
    24   11   22       1
    25   12   23       1
    26   12   24       1
    27   13   25       1
    28   14   26       1
    29   15   27       1
    30   16   28       1
    31   16   29       1
    32   16   30       1
    33    4   32       1
@<TRIPOS>SUBSTRUCTURE
     1 H4B429      1 GROUP             4 A     H4B     0 **** H4B A 429
