@<TRIPOS>MOLECULE
4dqw_ATP_1_ligand
   43    45     1     0     0
SMALL
NO_CHARGES


@<TRIPOS>ATOM
     1 PG          -9.4240   -29.2880    35.0670 P.3          1 ATP501   0.0000
     2 O1G         -9.5130   -29.9990    33.7190 O.co2        1 ATP501   0.0000
     3 O2G        -10.6820   -28.6320    35.5630 O.co2        1 ATP501  -1.0000
     4 O3G         -8.7660   -30.1200    36.1470 O.co2        1 ATP501  -1.0000
     5 PB          -8.8090   -26.8000    33.7650 P.3          1 ATP501   0.0000
     6 O1B         -9.9310   -27.2510    32.8520 O.co2        1 ATP501   0.0000
     7 O2B         -8.8180   -25.4300    34.4210 O.co2        1 ATP501  -1.0000
     8 O3B         -8.4960   -27.9920    34.8200 O.3          1 ATP501   0.0000
     9 PA          -6.9280   -25.7810    31.9140 P.3          1 ATP501   0.0000
    10 O1A         -8.0880   -25.0180    31.3230 O.co2        1 ATP501   0.0000
    11 O2A         -6.0080   -26.5700    31.0070 O.co2        1 ATP501  -1.0000
    12 O3A         -7.4120   -26.8470    32.9950 O.3          1 ATP501   0.0000
    13 O5'         -6.1130   -24.6810    32.7390 O.3          1 ATP501   0.0000
    14 C5'         -5.0680   -24.9770    33.6530 C.3          1 ATP501   0.0000
    15 C4'         -4.2520   -23.7100    33.8790 C.3          1 ATP501   0.0000
    16 O4'         -3.7070   -23.3230    32.6220 O.3          1 ATP501   0.0000
    17 C3'         -5.0780   -22.5200    34.3880 C.3          1 ATP501   0.0000
    18 O3'         -4.3670   -21.7170    35.3420 O.3          1 ATP501   0.0000
    19 C2'         -5.3540   -21.6780    33.1670 C.3          1 ATP501   0.0000
    20 O2'         -5.5190   -20.2950    33.5240 O.3          1 ATP501   0.0000
    21 C1'         -4.1180   -21.9880    32.3200 C.3          1 ATP501   0.0000
    22 N9          -4.3350   -21.9720    30.8560 N.pl3        1 ATP501   0.0000
    23 C8          -5.3640   -22.5170    30.1570 C.2          1 ATP501   0.0000
    24 N7          -5.1910   -22.3130    28.8230 N.2          1 ATP501   0.0000
    25 C5          -4.0320   -21.6490    28.6720 C.ar         1 ATP501   0.0000
    26 C6          -3.2460   -21.1090    27.5580 C.ar         1 ATP501   0.0000
    27 N6          -3.6580   -21.2420    26.2930 N.pl3        1 ATP501   0.0000
    28 N1          -2.1010   -20.4810    27.8380 N.ar         1 ATP501   0.0000
    29 C2          -1.6580   -20.3300    29.0890 C.ar         1 ATP501   0.0000
    30 N3          -2.3170   -20.7920    30.1500 N.ar         1 ATP501   0.0000
    31 C4          -3.4780   -21.4390    30.0080 C.ar         1 ATP501   0.0000
    32 H5'1        -4.4815   -25.6932    33.2748 H            1 ATP501   0.0000
    33 H5'2        -5.4563   -25.2877    34.5206 H            1 ATP501   0.0000
    34 H4'         -3.5094   -23.9006    34.5210 H            1 ATP501   0.0000
    35 H3'         -5.9376   -22.8430    34.7839 H            1 ATP501   0.0000
    36 H5          -4.9483   -20.9596    35.6392 H            1 ATP501   0.0000
    37 H2'         -6.1757   -22.0099    32.7037 H            1 ATP501   0.0000
    38 H7          -6.2871   -20.2037    34.1577 H            1 ATP501   0.0000
    39 H1'         -3.3837   -21.3513    32.5556 H            1 ATP501   0.0000
    40 H9          -6.1389   -22.9998    30.5649 H            1 ATP501   0.0000
    41 H10         -3.1086   -20.8672    25.5462 H            1 ATP501   0.0000
    42 H11         -4.5155   -21.7163    26.0937 H            1 ATP501   0.0000
    43 H12         -0.7936   -19.8489    29.2353 H            1 ATP501   0.0000
@<TRIPOS>BOND
     1    1    2      ar
     2    1    3      ar
     3    1    4      ar
     4    1    8       1
     5    5    6      ar
     6    5    7      ar
     7    5    8       1
     8    5   12       1
     9    9   10      ar
    10    9   11      ar
    11    9   12       1
    12    9   13       1
    13   13   14       1
    14   14   15       1
    15   15   16       1
    16   15   17       1
    17   16   21       1
    18   17   18       1
    19   17   19       1
    20   19   20       1
    21   19   21       1
    22   21   22       1
    23   22   23       1
    24   22   31       1
    25   23   24       2
    26   24   25       1
    27   25   26      ar
    28   25   31      ar
    29   26   27       1
    30   26   28      ar
    31   28   29      ar
    32   29   30      ar
    33   30   31      ar
    34   29   43       1
    35   27   42       1
    36   27   41       1
    37   23   40       1
    38   14   32       1
    39   14   33       1
    40   15   34       1
    41   17   35       1
    42   18   36       1
    43   19   37       1
    44   20   38       1
    45   21   39       1
@<TRIPOS>SUBSTRUCTURE
     1 ATP501      1 GROUP             4 A     ATP     0 **** ATP A 501
