@<TRIPOS>MOLECULE
./coach420/1esw/ligand.pdb
 87 91 0 0 0
SMALL
GASTEIGER

@<TRIPOS>ATOM
      1  C1A      -48.6100  -16.1870   -1.6090 C.3   651  ACR651      0.1273
      2  C2A      -47.9850  -15.3470   -2.7810 C.3   651  ACR651      0.2049
      3  C3A      -46.9730  -14.3090   -2.2380 C.3   651  ACR651      0.2179
      4  C4A      -47.6020  -13.3100   -1.1990 C.3   651  ACR651      0.2053
      5  C5A      -48.6330  -13.9820   -0.2590 C.2   651  ACR651      0.0180
      6  C6A      -49.2690  -13.1380    0.8510 C.3   651  ACR651      0.2066
      7  C7A      -49.0740  -15.2860   -0.4590 C.2   651  ACR651     -0.0100
      8  O2A      -47.3800  -16.2270   -3.7100 O.3   651  ACR651     -0.2184
      9  O3A      -46.4110  -13.5540   -3.2980 O.3   651  ACR651     -0.2172
     10  O4A      -46.5040  -12.6950   -0.5360 O.3   651  ACR651     -0.2157
     11  O6A      -50.0280  -12.0580    0.2700 O.3   651  ACR651     -0.2155
     12  C1B      -46.9610  -21.3610   -0.8740 C.3   651  ACR651      0.2694
     13  C2B      -46.2030  -20.5650   -1.9460 C.3   651  ACR651      0.2394
     14  C3B      -46.1910  -19.0620   -1.5850 C.3   651  ACR651      0.2054
     15  C4B      -47.6300  -18.5540   -1.4260 C.3   651  ACR651      0.1333
     16  C5B      -48.3270  -19.4140   -0.3000 C.3   651  ACR651      0.1364
     17  C6B      -49.7800  -19.0300   -0.0890 C.3   651  ACR651      0.0337
     18  N4B      -47.5930  -17.1200   -1.0470 N.3   651  ACR651     -0.2087
     19  O2B      -44.8790  -21.0660   -2.0720 O.3   651  ACR651     -0.2149
     20  O3B      -45.5160  -18.3510   -2.6210 O.3   651  ACR651     -0.2186
     21  O5B      -48.3030  -20.8420   -0.7110 O.3   651  ACR651     -0.3295
     22  C1C      -45.3450  -23.9840    3.4770 C.3   651  ACR651      0.2695
     23  C2C      -45.7450  -24.5800    2.0990 C.3   651  ACR651      0.2404
     24  C3C      -45.5770  -23.4980    1.0010 C.3   651  ACR651      0.2167
     25  C4C      -46.4790  -22.2800    1.3630 C.3   651  ACR651      0.1804
     26  C5C      -45.9680  -21.7470    2.6740 C.3   651  ACR651      0.1803
     27  C6C      -46.8300  -20.5570    3.1290 C.3   651  ACR651      0.2141
     28  O2C      -44.9940  -25.7500    1.8210 O.3   651  ACR651     -0.2149
     29  O3C      -45.9580  -24.0430   -0.2370 O.3   651  ACR651     -0.2175
     30  O4C      -46.3730  -21.2000    0.3970 O.3   651  ACR651     -0.3257
     31  O5C      -46.0990  -22.7830    3.7060 O.3   651  ACR651     -0.3257
     32  O6C      -46.1450  -19.8350    4.1160 O.3   651  ACR651     -0.2176
     33  C1D      -40.9900  -22.7300    6.3560 C.3   651  ACR651      0.3023
     34  C2D      -42.3100  -23.3170    6.8940 C.3   651  ACR651      0.2433
     35  C3D      -43.0400  -24.0340    5.7480 C.3   651  ACR651      0.2168
     36  C4D      -43.3060  -23.0460    4.6130 C.3   651  ACR651      0.1804
     37  C5D      -41.9820  -22.4680    4.1200 C.3   651  ACR651      0.1804
     38  C6D      -42.2420  -21.4400    3.0040 C.3   651  ACR651      0.2141
     39  O1D      -40.1640  -23.7750    5.9120 O.3   651  ACR651     -0.1869
     40  O2D      -42.0410  -24.2130    7.9630 O.3   651  ACR651     -0.2148
     41  O3D      -44.2730  -24.5410    6.2320 O.3   651  ACR651     -0.2175
     42  O4D      -43.9490  -23.7100    3.4830 O.3   651  ACR651     -0.3257
     43  O5D      -41.2700  -21.8150    5.2360 O.3   651  ACR651     -0.3237
     44  O6D      -41.1420  -20.5580    2.8430 O.3   651  ACR651     -0.2176
     45  C2A      -51.3780  -16.7620  -12.9720 C.3   652  ACR652      0.2174
     46  C3A      -51.0290  -15.2550  -12.8840 C.3   652  ACR652      0.2149
     47  C4A      -50.8380  -14.5890  -14.2870 C.3   652  ACR652      0.1872
     48  C5A      -51.7290  -15.2110  -15.4170 C.3   652  ACR652      0.0661
     49  C6A      -51.6590  -14.6250  -16.8380 C.3   652  ACR652      0.1846
     50  C7A      -52.5600  -16.3000  -15.1750 C.3   652  ACR652      0.0054
     51  O2A      -51.5520  -17.3520  -11.6980 O.3   652  ACR652     -0.2175
     52  O3A      -49.8390  -15.0430  -12.1350 O.3   652  ACR652     -0.2176
     53  O4A      -51.0500  -13.1930  -14.0570 O.3   652  ACR652     -0.2202
     54  O6A      -50.2870  -14.5720  -17.2940 O.3   652  ACR652     -0.2203
     55  C1B      -57.5570  -17.8290  -11.5600 C.3   652  ACR652      0.2694
     56  C2B      -56.2360  -18.2580  -10.8340 C.3   652  ACR652      0.2394
     57  C3B      -55.0790  -17.3190  -11.1850 C.3   652  ACR652      0.2070
     58  C4B      -54.9130  -17.2580  -12.7250 C.3   652  ACR652      0.1518
     59  C5B      -56.2510  -16.7500  -13.3380 C.3   652  ACR652      0.1380
     60  C6B      -56.2000  -16.6730  -14.8470 C.3   652  ACR652      0.0338
     61  N4B      -53.8100  -16.3520  -13.0860 N.3   652  ACR652     -0.1276
     62  O2B      -56.4380  -18.3660   -9.4390 O.3   652  ACR652     -0.2149
     63  O3B      -53.8930  -17.8040  -10.5360 O.3   652  ACR652     -0.2186
     64  O5B      -57.3330  -17.6850  -12.9690 O.3   652  ACR652     -0.3295
     65  C1C      -60.7610  -14.3660   -8.9060 C.3   652  ACR652      0.2695
     66  C2C      -60.4860  -15.8030   -8.4150 C.3   652  ACR652      0.2404
     67  C3C      -59.1610  -16.3410   -9.0290 C.3   652  ACR652      0.2167
     68  C4C      -59.2950  -16.2940  -10.5830 C.3   652  ACR652      0.1804
     69  C5C      -59.4990  -14.8160  -10.9260 C.3   652  ACR652      0.1803
     70  C6C      -59.6630  -14.6690  -12.4440 C.3   652  ACR652      0.2141
     71  O2C      -60.4890  -15.8350   -7.0050 O.3   652  ACR652     -0.2149
     72  O3C      -58.9700  -17.6660   -8.5640 O.3   652  ACR652     -0.2175
     73  O4C      -58.0840  -16.5780  -11.3050 O.3   652  ACR652     -0.3257
     74  O5C      -60.7320  -14.3320  -10.3290 O.3   652  ACR652     -0.3257
     75  O6C      -59.8260  -13.3250  -12.8290 O.3   652  ACR652     -0.2176
     76  C1D      -59.6340   -9.6140   -6.6770 C.3   652  ACR652      0.3023
     77  C2D      -60.5480  -10.6850   -6.0120 C.3   652  ACR652      0.2433
     78  C3D      -60.1370  -12.0890   -6.4540 C.3   652  ACR652      0.2168
     79  C4D      -60.1920  -12.1840   -7.9790 C.3   652  ACR652      0.1804
     80  C5D      -59.2160  -11.1080   -8.5860 C.3   652  ACR652      0.1804
     81  C6D      -59.2150  -11.1120  -10.1080 C.3   652  ACR652      0.2141
     82  O1D      -58.3320   -9.7070   -6.1940 O.3   652  ACR652     -0.1869
     83  O2D      -60.4880  -10.5550   -4.5890 O.3   652  ACR652     -0.2148
     84  O3D      -61.0190  -13.0500   -5.8610 O.3   652  ACR652     -0.2175
     85  O4D      -59.7900  -13.5090   -8.3910 O.3   652  ACR652     -0.3257
     86  O5D      -59.6330   -9.7640   -8.1390 O.3   652  ACR652     -0.3237
     87  O6D      -60.5460  -11.1390  -10.6250 O.3   652  ACR652     -0.2176
@<TRIPOS>BOND
     1     1     2    1
     2     1    18    1
     3     1     7    1
     4     2     8    1
     5     2     3    1
     6     3     9    1
     7     3     4    1
     8     4    10    1
     9     4     5    1
    10     5     7    2
    11     5     6    1
    12     6    11    1
    13    12    13    1
    14    12    21    1
    15    12    30    1
    16    13    19    1
    17    13    14    1
    18    14    20    1
    19    14    15    1
    20    15    18    1
    21    15    16    1
    22    16    21    1
    23    16    17    1
    24    22    23    1
    25    22    42    1
    26    22    31    1
    27    23    24    1
    28    23    28    1
    29    24    29    1
    30    24    25    1
    31    25    30    1
    32    25    26    1
    33    26    27    1
    34    26    31    1
    35    27    32    1
    36    33    43    1
    37    33    39    1
    38    33    34    1
    39    34    35    1
    40    34    40    1
    41    35    36    1
    42    35    41    1
    43    36    42    1
    44    36    37    1
    45    37    38    1
    46    37    43    1
    47    38    44    1
    48    45    46    1
    49    45    51    1
    50    46    47    1
    51    46    52    1
    52    47    48    1
    53    47    53    1
    54    48    49    1
    55    48    50    1
    56    49    54    1
    57    55    64    1
    58    55    73    1
    59    55    56    1
    60    56    57    1
    61    56    62    1
    62    57    58    1
    63    57    63    1
    64    58    59    1
    65    58    61    1
    66    59    60    1
    67    59    64    1
    68    65    74    1
    69    65    66    1
    70    65    85    1
    71    66    67    1
    72    66    71    1
    73    67    68    1
    74    67    72    1
    75    68    73    1
    76    68    69    1
    77    69    70    1
    78    69    74    1
    79    70    75    1
    80    76    86    1
    81    76    82    1
    82    76    77    1
    83    77    78    1
    84    77    83    1
    85    78    79    1
    86    78    84    1
    87    79    80    1
    88    79    85    1
    89    80    81    1
    90    80    86    1
    91    81    87    1
