@<TRIPOS>MOLECULE
1upu_U5P_2_ligand
   32    33     1     0     0
SMALL
NO_CHARGES


@<TRIPOS>ATOM
     1 N1          10.7750    68.9440    90.9110 N.pl3        1 U5P999   0.0000
     2 C2          11.7530    69.5920    90.1780 C.2          1 U5P999   0.0000
     3 N3          12.7950    68.7790    89.7750 N.pl3        1 U5P999   0.0000
     4 C4          13.0310    67.4660    90.1600 C.2          1 U5P999   0.0000
     5 C5          12.0040    66.8860    90.9770 C.2          1 U5P999   0.0000
     6 C6          10.9540    67.6390    91.3310 C.2          1 U5P999   0.0000
     7 O2          11.5950    70.7060    89.7120 O.2          1 U5P999   0.0000
     8 O4          14.0430    66.8940    89.7900 O.2          1 U5P999   0.0000
     9 C1'          9.5950    69.7250    91.3970 C.3          1 U5P999   0.0000
    10 C2'          8.2790    69.2000    90.8330 C.3          1 U5P999   0.0000
    11 O2'          7.8910    69.9360    89.6810 O.3          1 U5P999   0.0000
    12 C3'          7.2840    69.3420    91.9980 C.3          1 U5P999   0.0000
    13 C4'          8.1470    69.5160    93.2440 C.3          1 U5P999   0.0000
    14 O3'          6.4140    70.4590    91.8300 O.3          1 U5P999   0.0000
    15 O4'          9.5280    69.5310    92.7980 O.3          1 U5P999   0.0000
    16 C5'          7.9620    68.4250    94.2850 C.3          1 U5P999   0.0000
    17 O5'          8.1220    67.1340    93.6980 O.3          1 U5P999   0.0000
    18 P            7.7870    65.7520    94.4520 P.3          1 U5P999   0.0000
    19 O1P          8.9880    65.3040    95.1810 O.co2        1 U5P999   0.0000
    20 O2P          6.5250    65.9470    95.2020 O.co2        1 U5P999  -1.0000
    21 O3P          7.1630    64.8410    93.4540 O.co2        1 U5P999  -1.0000
    22 H1          13.4512    69.1803    89.1359 H            1 U5P999   0.0000
    23 H2          12.0709    65.9346    91.2775 H            1 U5P999   0.0000
    24 H3          10.2630    67.2357    91.9309 H            1 U5P999   0.0000
    25 H1'          9.7053    70.6956    91.1828 H            1 U5P999   0.0000
    26 H2'          8.3791    68.2340    90.5946 H            1 U5P999   0.0000
    27 H6           6.8933    69.9481    89.6136 H            1 U5P999   0.0000
    28 H3'          6.7426    68.5052    92.0798 H            1 U5P999   0.0000
    29 H4'          7.9342    70.3991    93.6621 H            1 U5P999   0.0000
    30 H9           5.5955    70.1721    91.3322 H            1 U5P999   0.0000
    31 H5'1         7.0442    68.4964    94.6755 H            1 U5P999   0.0000
    32 H5'2         8.6422    68.5431    95.0085 H            1 U5P999   0.0000
@<TRIPOS>BOND
     1    1    2       1
     2    1    6       1
     3    1    9       1
     4    2    3       1
     5    2    7       2
     6    3    4       1
     7    4    5       1
     8    4    8       2
     9    5    6       2
    10    9   10       1
    11    9   15       1
    12   10   11       1
    13   10   12       1
    14   12   13       1
    15   12   14       1
    16   13   15       1
    17   13   16       1
    18   16   17       1
    19   17   18       1
    20   18   19      ar
    21   18   20      ar
    22   18   21      ar
    23    3   22       1
    24    5   23       1
    25    6   24       1
    26    9   25       1
    27   10   26       1
    28   11   27       1
    29   12   28       1
    30   13   29       1
    31   14   30       1
    32   16   31       1
    33   16   32       1
@<TRIPOS>SUBSTRUCTURE
     1 U5P999      1 GROUP             4 B     U5P     0 **** U5P B 999
