@<TRIPOS>MOLECULE
4as7_6LX_1_ligand
   71    74     1     0     0
SMALL
NO_CHARGES


@<TRIPOS>ATOM
     1 CAW         49.6900    10.6490    -5.1740 C.ar         1 6LX1375   0.0000
     2 CAX         49.1260    11.6890    -5.8850 C.ar         1 6LX1375   0.0000
     3 CAY         47.9170    11.5110    -6.5480 C.ar         1 6LX1375   0.0000
     4 CAZ         47.2620    12.6720    -7.3180 C.3          1 6LX1375   0.0000
     5 CAO         47.2720    10.2820    -6.4990 C.ar         1 6LX1375   0.0000
     6 CAN         47.8320     9.2270    -5.8100 C.ar         1 6LX1375   0.0000
     7 CAM         49.0120     9.4320    -5.1240 C.ar         1 6LX1375   0.0000
     8 CAL         49.6350     8.2500    -4.4400 C.2          1 6LX1375   0.0000
     9 OAV         50.1950     7.4500    -5.1970 O.2          1 6LX1375   0.0000
    10 NAK         49.6000     8.1470    -3.1030 N.am         1 6LX1375   0.0000
    11 CAU         50.2390     6.9710    -2.4410 C.3          1 6LX1375   0.0000
    12 CBC         49.3850     5.6750    -2.4220 C.3          1 6LX1375   0.0000
    13 CBD         49.0730     5.0890    -3.8130 C.3          1 6LX1375   0.0000
    14 NBE         48.2400     3.8770    -3.6390 N.4          1 6LX1375   1.0000
    15 CAJ         48.8730     9.1230    -2.2470 C.3          1 6LX1375   0.0000
    16 CAB         49.7550    10.2640    -1.5930 C.3          1 6LX1375   0.0000
    17 CAA         49.1580    10.9270    -0.3530 C.3          1 6LX1375   0.0000
    18 CAC         51.2360     9.9230    -1.4450 C.3          1 6LX1375   0.0000
    19 CAI         47.8860     8.4070    -1.3100 C.2          1 6LX1375   0.0000
    20 OAH         48.4950     7.7090    -0.3410 O.2          1 6LX1375   0.0000
    21 CAG         47.6800     7.0530     0.5040 C.ar         1 6LX1375   0.0000
    22 CAF         48.3060     6.3340     1.5210 C.ar         1 6LX1375   0.0000
    23 CAE         47.5390     5.6330     2.4450 C.ar         1 6LX1375   0.0000
    24 CLA         48.3170     4.7690     3.7400 Cl           1 6LX1375   0.0000
    25 CAP         46.1340     5.6360     2.3400 C.ar         1 6LX1375   0.0000
    26 CAQ         45.5210     6.3440     1.3110 C.ar         1 6LX1375   0.0000
    27 CAR         46.2910     7.0410     0.4030 C.ar         1 6LX1375   0.0000
    28 CAS         45.6780     7.7530    -0.6190 C.2          1 6LX1375   0.0000
    29 OBA         44.4390     7.7660    -0.6770 O.2          1 6LX1375   0.0000
    30 CAT         46.4930     8.4670    -1.5180 C.2          1 6LX1375   0.0000
    31 CBB         45.9140     9.2930    -2.6680 C.3          1 6LX1375   0.0000
    32 CBG         45.8760    10.7940    -2.2720 C.ar         1 6LX1375   0.0000
    33 CBF         46.4500    11.7650    -3.1020 C.ar         1 6LX1375   0.0000
    34 CBI         46.4270    13.1110    -2.7430 C.ar         1 6LX1375   0.0000
    35 CBJ         45.8310    13.5090    -1.5520 C.ar         1 6LX1375   0.0000
    36 CBK         45.2510    12.5380    -0.7420 C.ar         1 6LX1375   0.0000
    37 CBH         45.2730    11.1900    -1.0950 C.ar         1 6LX1375   0.0000
    38 HAW         50.5655    10.7660    -4.7052 H            1 6LX1375   0.0000
    39 HAX         49.5891    12.5745    -5.9234 H            1 6LX1375   0.0000
    40 HAZ1        46.4048    12.3591    -7.7271 H            1 6LX1375   0.0000
    41 HAZ2        47.0751    13.4261    -6.6884 H            1 6LX1375   0.0000
    42 HAZ3        47.8806    12.9850    -8.0387 H            1 6LX1375   0.0000
    43 HAO         46.3961    10.1615    -6.9662 H            1 6LX1375   0.0000
    44 HAN         47.3911     8.3295    -5.8074 H            1 6LX1375   0.0000
    45 HAU1        50.4411     7.2216    -1.4943 H            1 6LX1375   0.0000
    46 HAU2        51.0924     6.7715    -2.9225 H            1 6LX1375   0.0000
    47 HBC1        48.5176     5.8801    -1.9687 H            1 6LX1375   0.0000
    48 HBC2        49.8803     4.9832    -1.8965 H            1 6LX1375   0.0000
    49 HBD1        49.9259     4.8480    -4.2761 H            1 6LX1375   0.0000
    50 HBD2        48.5763     5.7636    -4.3591 H            1 6LX1375   0.0000
    51 HBE1        47.6431     3.7659    -4.4336 H            1 6LX1375   0.0000
    52 HBE2        48.8317     3.0756    -3.5519 H            1 6LX1375   0.0000
    53 HAJ         48.2830     9.6131    -2.8887 H            1 6LX1375   0.0000
    54 HAB         49.7468    10.9922    -2.2783 H            1 6LX1375   0.0000
    55 HAA1        49.7851    11.6292    -0.0159 H            1 6LX1375   0.0000
    56 HAA2        48.2821    11.3479    -0.5891 H            1 6LX1375   0.0000
    57 HAA3        49.0159    10.2380     0.3577 H            1 6LX1375   0.0000
    58 HAC1        51.7154    10.6941    -1.0260 H            1 6LX1375   0.0000
    59 HAC2        51.3355     9.1140    -0.8656 H            1 6LX1375   0.0000
    60 HAC3        51.6270     9.7375    -2.3465 H            1 6LX1375   0.0000
    61 HAF         49.3038     6.3224     1.5859 H            1 6LX1375   0.0000
    62 HAP         45.5798     5.1315     3.0021 H            1 6LX1375   0.0000
    63 HAQ         44.5243     6.3476     1.2298 H            1 6LX1375   0.0000
    64 HBB1        44.9858     8.9789    -2.8676 H            1 6LX1375   0.0000
    65 HBB2        46.4865     9.1784    -3.4799 H            1 6LX1375   0.0000
    66 HBF         46.8809    11.4894    -3.9613 H            1 6LX1375   0.0000
    67 HBI         46.8411    13.7938    -3.3449 H            1 6LX1375   0.0000
    68 HBJ         45.8194    14.4722    -1.2833 H            1 6LX1375   0.0000
    69 HBK         44.8089    12.8131     0.1117 H            1 6LX1375   0.0000
    70 HBH         44.8519    10.5094    -0.4955 H            1 6LX1375   0.0000
    71 HBE3        47.6827     3.9712    -2.8140 H            1 6LX1375   0.0000
@<TRIPOS>BOND
     1    1    2      ar
     2    1    7      ar
     3    2    3      ar
     4    3    4       1
     5    3    5      ar
     6    5    6      ar
     7    6    7      ar
     8    7    8       1
     9    8    9       2
    10    8   10      am
    11   10   11       1
    12   10   15       1
    13   11   12       1
    14   12   13       1
    15   13   14       1
    16   15   16       1
    17   15   19       1
    18   16   17       1
    19   16   18       1
    20   19   20       1
    21   19   30       2
    22   20   21       1
    23   21   22      ar
    24   21   27      ar
    25   22   23      ar
    26   23   24       1
    27   23   25      ar
    28   25   26      ar
    29   26   27      ar
    30   27   28       1
    31   28   29       2
    32   28   30       1
    33   30   31       1
    34   31   32       1
    35   32   33      ar
    36   32   37      ar
    37   33   34      ar
    38   34   35      ar
    39   35   36      ar
    40   36   37      ar
    41    1   38       1
    42    2   39       1
    43    4   40       1
    44    4   41       1
    45    4   42       1
    46    5   43       1
    47    6   44       1
    48   11   45       1
    49   11   46       1
    50   12   47       1
    51   12   48       1
    52   13   49       1
    53   13   50       1
    54   14   51       1
    55   14   52       1
    56   15   53       1
    57   16   54       1
    58   17   55       1
    59   17   56       1
    60   17   57       1
    61   18   58       1
    62   18   59       1
    63   18   60       1
    64   22   61       1
    65   25   62       1
    66   26   63       1
    67   31   64       1
    68   31   65       1
    69   33   66       1
    70   34   67       1
    71   35   68       1
    72   36   69       1
    73   37   70       1
    74   14   71       1
@<TRIPOS>SUBSTRUCTURE
     1 6LX1375     1 GROUP             4 A     6LX     0 **** 6LX A1375
