@<TRIPOS>MOLECULE
4x3q_SAH_1_ligand
   46    48     1     0     0
SMALL
NO_CHARGES


@<TRIPOS>ATOM
     1 N           -3.1510     5.7990     0.0770 N.4          1 SAH401   1.0000
     2 CA          -2.0100     4.9780    -0.1380 C.3          1 SAH401   0.0000
     3 CB          -0.8520     5.3380     0.7810 C.3          1 SAH401   0.0000
     4 CG          -1.1520     5.2250     2.2700 C.3          1 SAH401   0.0000
     5 SD           0.3320     5.4480     3.2430 S.3          1 SAH401   0.0000
     6 C           -2.4260     3.5460     0.0950 C.2          1 SAH401   0.0000
     7 O           -1.6900     2.5870    -0.2740 O.co2        1 SAH401   0.0000
     8 OXT         -3.5250     3.3260     0.6650 O.co2        1 SAH401  -1.0000
     9 C5'          0.2260     7.1120     3.9050 C.3          1 SAH401   0.0000
    10 C4'          0.4150     8.1740     2.8120 C.3          1 SAH401   0.0000
    11 O4'          0.1060     9.4980     3.3290 O.3          1 SAH401   0.0000
    12 C3'          1.9080     8.2510     2.3400 C.3          1 SAH401   0.0000
    13 O3'          1.9800     8.1810     0.9300 O.3          1 SAH401   0.0000
    14 C2'          2.3790     9.6230     2.7880 C.3          1 SAH401   0.0000
    15 O2'          3.3630    10.1720     1.8650 O.3          1 SAH401   0.0000
    16 C1'          1.0660    10.3980     2.7770 C.3          1 SAH401   0.0000
    17 N9           1.2180    11.5610     3.5440 N.pl3        1 SAH401   0.0000
    18 C8           1.4070    11.6280     4.8620 C.2          1 SAH401   0.0000
    19 N7           1.5250    12.8940     5.3000 N.2          1 SAH401   0.0000
    20 C5           1.4050    13.6570     4.1740 C.ar         1 SAH401   0.0000
    21 C6           1.4390    15.0450     3.9590 C.ar         1 SAH401   0.0000
    22 N6           1.6360    15.9230     4.9680 N.pl3        1 SAH401   0.0000
    23 N1           1.2640    15.4880     2.7090 N.ar         1 SAH401   0.0000
    24 C2           1.1070    14.6080     1.7050 C.ar         1 SAH401   0.0000
    25 N3           1.0610    13.2770     1.7870 N.ar         1 SAH401   0.0000
    26 C4           1.2170    12.8420     3.0740 C.ar         1 SAH401   0.0000
    27 H1          -3.8817     5.5245    -0.5480 H            1 SAH401   0.0000
    28 H2          -3.4634     5.6949     1.0212 H            1 SAH401   0.0000
    29 HA          -1.7131     5.0785    -1.0876 H            1 SAH401   0.0000
    30 HB1         -0.5859     6.2827     0.5891 H            1 SAH401   0.0000
    31 HB2         -0.0883     4.7274     0.5713 H            1 SAH401   0.0000
    32 HG1         -1.5336     4.3202     2.4587 H            1 SAH401   0.0000
    33 HG2         -1.8176     5.9270     2.5235 H            1 SAH401   0.0000
    34 H5'1         0.9372     7.2306     4.5979 H            1 SAH401   0.0000
    35 H5'2        -0.6728     7.2365     4.3252 H            1 SAH401   0.0000
    36 H4'         -0.1768     7.9676     2.0328 H            1 SAH401   0.0000
    37 H3'          2.4551     7.5287     2.7629 H            1 SAH401   0.0000
    38 H12          1.4717     8.9446     0.5320 H            1 SAH401   0.0000
    39 H2'          2.7530     9.5800     3.7144 H            1 SAH401   0.0000
    40 H14          2.9561    10.2566     0.9555 H            1 SAH401   0.0000
    41 H1'          0.8148    10.6354     1.8386 H            1 SAH401   0.0000
    42 H16          1.4556    10.8266     5.4582 H            1 SAH401   0.0000
    43 H17          1.6545    16.9050     4.7799 H            1 SAH401   0.0000
    44 H18          1.7632    15.5905     5.9025 H            1 SAH401   0.0000
    45 H19          1.0137    14.9968     0.7884 H            1 SAH401   0.0000
    46 H20         -2.9103     6.7549    -0.0910 H            1 SAH401   0.0000
@<TRIPOS>BOND
     1    1    2       1
     2    2    3       1
     3    2    6       1
     4    3    4       1
     5    4    5       1
     6    5    9       1
     7    6    7      ar
     8    6    8      ar
     9    9   10       1
    10   10   11       1
    11   10   12       1
    12   11   16       1
    13   12   13       1
    14   12   14       1
    15   14   15       1
    16   14   16       1
    17   16   17       1
    18   17   18       1
    19   17   26       1
    20   18   19       2
    21   19   20       1
    22   20   21      ar
    23   20   26      ar
    24   21   22       1
    25   21   23      ar
    26   23   24      ar
    27   24   25      ar
    28   25   26      ar
    29    1   27       1
    30    1   28       1
    31    2   29       1
    32    3   30       1
    33    3   31       1
    34    4   32       1
    35    4   33       1
    36    1   46       1
    37    9   34       1
    38    9   35       1
    39   10   36       1
    40   12   37       1
    41   13   38       1
    42   14   39       1
    43   15   40       1
    44   16   41       1
    45   18   42       1
    46   22   43       1
    47   22   44       1
    48   24   45       1
@<TRIPOS>SUBSTRUCTURE
     1 SAH401      1 GROUP             4 A     SAH     0 **** SAH A 401
