@<TRIPOS>MOLECULE
2hc0_AB2_1_ligand
   88    92     1     0     0
SMALL
NO_CHARGES


@<TRIPOS>ATOM
     1 C1          53.1930    23.5340     6.0630 C.3          1 AB23500   0.0000
     2 O1          54.4760    23.3770     6.6050 O.3          1 AB23500   0.0000
     3 C2          55.1990    22.2550     6.9650 C.ar         1 AB23500   0.0000
     4 C3          56.2500    22.2870     7.9880 C.ar         1 AB23500   0.0000
     5 C4          56.9620    21.0680     8.2780 C.ar         1 AB23500   0.0000
     6 C5          56.6630    19.8790     7.5740 C.ar         1 AB23500   0.0000
     7 C6          55.5830    19.8640     6.5960 C.ar         1 AB23500   0.0000
     8 C7          54.8740    21.0580     6.2690 C.ar         1 AB23500   0.0000
     9 S1          57.7370    18.4360     7.6840 S.o2         1 AB23500   0.0000
    10 O2          57.9130    18.2340     9.0710 O.2          1 AB23500   0.0000
    11 O3          57.0780    17.3690     7.0930 O.2          1 AB23500   0.0000
    12 N1          59.1490    18.8140     6.7520 N.3          1 AB23500   0.0000
    13 C8          59.2890    19.0050     5.3030 C.3          1 AB23500   0.0000
    14 C9          60.3740    18.4170     4.4010 C.3          1 AB23500   0.0000
    15 C10         59.9670    18.2810     2.9300 C.3          1 AB23500   0.0000
    16 C11         61.6030    19.3230     4.5080 C.3          1 AB23500   0.0000
    17 C12         60.3150    19.1620     7.5380 C.3          1 AB23500   0.0000
    18 C13         61.4050    18.3390     8.0130 C.3          1 AB23500   0.0000
    19 O4          62.6320    18.8780     8.3770 O.3          1 AB23500   0.0000
    20 C14         60.8940    16.9650     8.5600 C.3          1 AB23500   0.0000
    21 C15         61.3680    17.2940    10.0370 C.3          1 AB23500   0.0000
    22 C16         60.5760    16.3180    10.9400 C.ar         1 AB23500   0.0000
    23 C17         59.3020    16.7480    11.4530 C.ar         1 AB23500   0.0000
    24 C18         58.5860    15.8110    12.2840 C.ar         1 AB23500   0.0000
    25 C19         59.1750    14.5390    12.5560 C.ar         1 AB23500   0.0000
    26 C20         60.4510    14.1180    12.0740 C.ar         1 AB23500   0.0000
    27 C21         61.1470    15.0290    11.2050 C.ar         1 AB23500   0.0000
    28 N2          61.5050    15.6960     8.0910 N.pl3        1 AB23500   0.0000
    29 C22         62.7950    15.2510     8.0420 C.2          1 AB23500   0.0000
    30 C23         62.7610    13.9900     7.5000 C.2          1 AB23500   0.0000
    31 C24         63.9280    13.0300     7.2490 C.3          1 AB23500   0.0000
    32 O5          64.6120    12.4660     8.3730 O.3          1 AB23500   0.0000
    33 C25         64.0400    11.4310     9.1890 C.2          1 AB23500   0.0000
    34 O6          62.9470    10.9320     9.1830 O.2          1 AB23500   0.0000
    35 N3          64.5300    11.7200    10.3400 N.am         1 AB23500   0.0000
    36 C26         64.5210    11.0710    11.5830 C.3          1 AB23500   0.0000
    37 C27         64.1110    10.0950    12.6660 C.3          1 AB23500   0.0000
    38 O7          64.0730     8.6790    12.4480 O.3          1 AB23500   0.0000
    39 C28         62.8510    10.7790    13.1870 C.3          1 AB23500   0.0000
    40 C29         63.4330    12.1830    13.4170 C.ar         1 AB23500   0.0000
    41 C30         62.9040    13.2990    14.1220 C.ar         1 AB23500   0.0000
    42 C31         63.2250    14.6700    13.7450 C.ar         1 AB23500   0.0000
    43 C32         64.1130    14.8980    12.6360 C.ar         1 AB23500   0.0000
    44 C33         64.6100    13.7750    11.9070 C.ar         1 AB23500   0.0000
    45 C34         64.3220    12.4120    12.3210 C.ar         1 AB23500   0.0000
    46 N4          61.4550    13.7200     7.2690 N.2          1 AB23500   0.0000
    47 N5          60.7390    14.7250     7.5640 N.2          1 AB23500   0.0000
    48 H1          53.0030    24.5071     5.9326 H            1 AB23500   0.0000
    49 H2          53.1435    23.0637     5.1819 H            1 AB23500   0.0000
    50 H3          52.5171    23.1432     6.6878 H            1 AB23500   0.0000
    51 H4          56.4672    23.1344     8.4725 H            1 AB23500   0.0000
    52 H5          57.6723    21.0631     8.9819 H            1 AB23500   0.0000
    53 H6          55.3354    19.0050     6.1479 H            1 AB23500   0.0000
    54 H7          54.1635    21.0534     5.5653 H            1 AB23500   0.0000
    55 H8          59.3582    19.9948     5.1785 H            1 AB23500   0.0000
    56 H9          58.4266    18.6797     4.9152 H            1 AB23500   0.0000
    57 H10         60.6172    17.5110     4.7474 H            1 AB23500   0.0000
    58 H11         60.7262    17.8912     2.4088 H            1 AB23500   0.0000
    59 H12         59.1706    17.6804     2.8586 H            1 AB23500   0.0000
    60 H13         59.7386    19.1826     2.5626 H            1 AB23500   0.0000
    61 H14         62.3335    18.9639     3.9271 H            1 AB23500   0.0000
    62 H15         61.3632    20.2467     4.2092 H            1 AB23500   0.0000
    63 H16         61.9153    19.3504     5.4576 H            1 AB23500   0.0000
    64 H17         59.9344    19.5641     8.3708 H            1 AB23500   0.0000
    65 H18         60.7660    19.8742     7.0000 H            1 AB23500   0.0000
    66 H19         61.6915    18.0032     7.1157 H            1 AB23500   0.0000
    67 H20         62.4985    19.8061     8.7246 H            1 AB23500   0.0000
    68 H21         59.8964    16.9151     8.5124 H            1 AB23500   0.0000
    69 H22         61.1536    18.2421    10.2717 H            1 AB23500   0.0000
    70 H23         62.3516    17.1412    10.1325 H            1 AB23500   0.0000
    71 H24         58.9310    17.6527    11.2435 H            1 AB23500   0.0000
    72 H25         57.6917    16.0484    12.6634 H            1 AB23500   0.0000
    73 H26         58.6576    13.8986    13.1236 H            1 AB23500   0.0000
    74 H27         60.8419    13.2333    12.3279 H            1 AB23500   0.0000
    75 H28         62.0185    14.7668    10.7906 H            1 AB23500   0.0000
    76 H29         63.6086    15.7483     8.3432 H            1 AB23500   0.0000
    77 H30         64.6079    13.5284     6.7112 H            1 AB23500   0.0000
    78 H31         63.5704    12.2675     6.7099 H            1 AB23500   0.0000
    79 H32         65.0213    12.5909    10.3527 H            1 AB23500   0.0000
    80 H33         65.5110    10.9971    11.7032 H            1 AB23500   0.0000
    81 H34         64.7873    10.2221    13.3916 H            1 AB23500   0.0000
    82 H35         64.9850     8.3561    12.1948 H            1 AB23500   0.0000
    83 H36         62.5204    10.3646    14.0349 H            1 AB23500   0.0000
    84 H37         62.1161    10.7822    12.5089 H            1 AB23500   0.0000
    85 H38         62.2945    13.1387    14.8984 H            1 AB23500   0.0000
    86 H39         62.8342    15.4401    14.2492 H            1 AB23500   0.0000
    87 H40         64.3778    15.8277    12.3799 H            1 AB23500   0.0000
    88 H41         65.1692    13.9301    11.0926 H            1 AB23500   0.0000
@<TRIPOS>BOND
     1    1    2       1
     2    2    3       1
     3    3    4      ar
     4    3    8      ar
     5    4    5      ar
     6    5    6      ar
     7    6    7      ar
     8    6    9       1
     9    7    8      ar
    10    9   10       2
    11    9   11       2
    12    9   12       1
    13   12   13       1
    14   12   17       1
    15   13   14       1
    16   14   15       1
    17   14   16       1
    18   17   18       1
    19   18   19       1
    20   18   20       1
    21   20   21       1
    22   20   28       1
    23   21   22       1
    24   22   23      ar
    25   22   27      ar
    26   23   24      ar
    27   24   25      ar
    28   25   26      ar
    29   26   27      ar
    30   28   29       1
    31   28   47       1
    32   29   30       2
    33   30   31       1
    34   30   46       1
    35   31   32       1
    36   32   33       1
    37   33   34       2
    38   33   35      am
    39   35   36       1
    40   36   37       1
    41   36   45       1
    42   37   38       1
    43   37   39       1
    44   39   40       1
    45   40   41      ar
    46   40   45      ar
    47   41   42      ar
    48   42   43      ar
    49   43   44      ar
    50   44   45      ar
    51   46   47       2
    52    1   48       1
    53    1   49       1
    54    1   50       1
    55    4   51       1
    56    5   52       1
    57    7   53       1
    58    8   54       1
    59   13   55       1
    60   13   56       1
    61   14   57       1
    62   15   58       1
    63   15   59       1
    64   15   60       1
    65   16   61       1
    66   16   62       1
    67   16   63       1
    68   17   64       1
    69   17   65       1
    70   18   66       1
    71   19   67       1
    72   20   68       1
    73   21   69       1
    74   21   70       1
    75   23   71       1
    76   24   72       1
    77   25   73       1
    78   26   74       1
    79   27   75       1
    80   29   76       1
    81   31   77       1
    82   31   78       1
    83   35   79       1
    84   36   80       1
    85   37   81       1
    86   38   82       1
    87   39   83       1
    88   39   84       1
    89   41   85       1
    90   42   86       1
    91   43   87       1
    92   44   88       1
@<TRIPOS>SUBSTRUCTURE
     1 AB23500     1 GROUP             4 A     AB2     0 **** AB2 A3500
