@<TRIPOS>MOLECULE
2hxd_DUP_1_ligand
   40    41     1     0     0
SMALL
NO_CHARGES


@<TRIPOS>ATOM
     1 O4          51.3920    54.3150   106.2320 O.2          1 DUP206   0.0000
     2 C4          50.2720    53.8080   105.9150 C.2          1 DUP206   0.0000
     3 C5          49.2480    54.0080   106.7040 C.2          1 DUP206   0.0000
     4 C6          48.1040    53.4980   106.4100 C.2          1 DUP206   0.0000
     5 N3          50.1520    53.0630   104.7650 N.pl3        1 DUP206   0.0000
     6 C2          48.9740    52.4940   104.4070 C.2          1 DUP206   0.0000
     7 O2          48.8430    51.7860   103.3800 O.2          1 DUP206   0.0000
     8 N1          47.8980    52.7340   105.2910 N.pl3        1 DUP206   0.0000
     9 C1'         46.5820    52.1840   105.0070 C.3          1 DUP206   0.0000
    10 C2'         46.0250    51.5050   106.2630 C.3          1 DUP206   0.0000
    11 C3'         44.9270    52.4240   106.7880 C.3          1 DUP206   0.0000
    12 O3'         43.7760    51.7290   107.2770 O.3          1 DUP206   0.0000
    13 O4'         45.7030    53.2820   104.6790 O.3          1 DUP206   0.0000
    14 C4'         44.5690    53.3120   105.5750 C.3          1 DUP206   0.0000
    15 C5'         44.2080    54.7260   105.9440 C.3          1 DUP206   0.0000
    16 O5'         45.1000    55.1830   106.9690 O.3          1 DUP206   0.0000
    17 PA          44.8770    56.6970   107.4740 P.3          1 DUP206   0.0000
    18 O1A         43.4450    56.7890   107.9870 O.co2        1 DUP206   0.0000
    19 O2A         46.0030    56.9020   108.4860 O.co2        1 DUP206  -1.0000
    20 N3A         44.9670    57.6160   106.0550 N.3          1 DUP206   0.0000
    21 PB          43.8630    58.8010   105.5910 P.3          1 DUP206   0.0000
    22 O1B         43.2110    59.4560   106.7650 O.co2        1 DUP206   0.0000
    23 O2B         44.4860    59.8400   104.6990 O.co2        1 DUP206  -1.0000
    24 O3B         42.7550    58.0070   104.7050 O.3          1 DUP206   0.0000
    25 PG          41.1520    57.9090   105.0170 P.3          1 DUP206   0.0000
    26 O2G         40.7470    56.8210   104.0220 O.co2        1 DUP206   0.0000
    27 O1G         41.0850    57.4890   106.4940 O.co2        1 DUP206  -1.0000
    28 O3G         40.5640    59.3020   104.7890 O.co2        1 DUP206  -1.0000
    29 H1          49.3541    54.5560   107.5337 H            1 DUP206   0.0000
    30 H2          47.3327    53.6661   107.0238 H            1 DUP206   0.0000
    31 H3          50.9525    52.9379   104.1788 H            1 DUP206   0.0000
    32 H1'         46.6296    51.5340   104.2486 H            1 DUP206   0.0000
    33 H2'1        46.7454    51.3981   106.9483 H            1 DUP206   0.0000
    34 H2'2        45.6469    50.6080   106.0340 H            1 DUP206   0.0000
    35 H3'         45.2992    52.9979   107.5174 H            1 DUP206   0.0000
    36 H8          43.1009    52.3906   107.6034 H            1 DUP206   0.0000
    37 H4'         43.7875    52.9012   105.1055 H            1 DUP206   0.0000
    38 H5'1        43.2670    54.7547   106.2812 H            1 DUP206   0.0000
    39 H5'2        44.2920    55.3143   105.1397 H            1 DUP206   0.0000
    40 H3A         45.8523    58.0792   106.0947 H            1 DUP206   0.0000
@<TRIPOS>BOND
     1    1    2       2
     2    2    3       1
     3    2    5       1
     4    3    4       2
     5    4    8       1
     6    5    6       1
     7    6    7       2
     8    6    8       1
     9    8    9       1
    10    9   10       1
    11    9   13       1
    12   10   11       1
    13   11   12       1
    14   11   14       1
    15   13   14       1
    16   14   15       1
    17   15   16       1
    18   16   17       1
    19   17   18      ar
    20   17   19      ar
    21   17   20       1
    22   20   21       1
    23   21   22      ar
    24   21   23      ar
    25   21   24       1
    26   24   25       1
    27   25   26      ar
    28   25   27      ar
    29   25   28      ar
    30    3   29       1
    31    4   30       1
    32    5   31       1
    33    9   32       1
    34   10   33       1
    35   10   34       1
    36   11   35       1
    37   12   36       1
    38   14   37       1
    39   15   38       1
    40   15   39       1
    41   20   40       1
@<TRIPOS>SUBSTRUCTURE
     1 DUP206      1 GROUP             4 A     DUP     0 **** DUP A 206
