@<TRIPOS>MOLECULE
4mgj_CPZ_1_ligand
   19    20     1     0     0
SMALL
NO_CHARGES


@<TRIPOS>ATOM
     1 C11         35.3210    -3.5220     9.0900 C.ar         1 CPZ502   0.0000
     2 C10         33.9860    -3.2450     8.8690 C.ar         1 CPZ502   0.0000
     3 C9          33.4140    -3.6130     7.6710 C.ar         1 CPZ502   0.0000
     4 C8          34.1490    -4.2420     6.6880 C.ar         1 CPZ502   0.0000
     5 C7          35.4930    -4.4790     6.9010 C.ar         1 CPZ502   0.0000
     6 C6          36.0960    -4.1230     8.1040 C.ar         1 CPZ502   0.0000
     7 C4          37.5410    -4.3040     8.2970 C.2          1 CPZ502   0.0000
     8 C2          38.3760    -3.6370     9.1570 C.2          1 CPZ502   0.0000
     9 N1          39.6640    -4.0750     8.9720 N.2          1 CPZ502   0.0000
    10 C5          39.6070    -4.9850     8.0240 C.2          1 CPZ502   0.0000
    11 N3          38.3490    -5.1620     7.5900 N.pl3        1 CPZ502   0.0000
    12 CL          31.7110    -3.3630     7.4290 Cl           1 CPZ502   0.0000
    13 H1          35.7352    -3.2876     9.9695 H            1 CPZ502   0.0000
    14 H2          33.4418    -2.7833     9.5695 H            1 CPZ502   0.0000
    15 H3          33.7146    -4.5228     5.8322 H            1 CPZ502   0.0000
    16 H4          36.0388    -4.9111     6.1831 H            1 CPZ502   0.0000
    17 H5          38.0911    -2.9406     9.8157 H            1 CPZ502   0.0000
    18 H6          40.4000    -5.4819     7.6714 H            1 CPZ502   0.0000
    19 H7          38.0534    -5.8021     6.8808 H            1 CPZ502   0.0000
@<TRIPOS>BOND
     1    1    2      ar
     2    1    6      ar
     3    2    3      ar
     4    3    4      ar
     5    3   12       1
     6    4    5      ar
     7    5    6      ar
     8    6    7       1
     9    7    8       2
    10    7   11       1
    11    8    9       1
    12    9   10       2
    13   10   11       1
    14    1   13       1
    15    2   14       1
    16    4   15       1
    17    5   16       1
    18    8   17       1
    19   10   18       1
    20   11   19       1
@<TRIPOS>SUBSTRUCTURE
     1 CPZ502      1 GROUP             4 A     CPZ     0 **** CPZ A 502
