@<TRIPOS>MOLECULE
3vu8_MDS_1_ligand
   23    22     1     0     0
SMALL
NO_CHARGES


@<TRIPOS>ATOM
     1 S1          38.4220    38.3110    37.1720 S.3          1 MDS602   0.0000
     2 N2          39.3820    37.3020    36.3240 N.am         1 MDS602   0.0000
     3 C5          39.0910    36.0800    35.8740 C.2          1 MDS602   0.0000
     4 O5          37.9660    35.6250    36.1450 O.2          1 MDS602   0.0000
     5 C6          40.0940    35.3800    35.1280 C.3          1 MDS602   0.0000
     6 N3          40.7840    36.1950    34.1340 N.4          1 MDS602   1.0000
     7 C7          41.0770    34.8580    36.1690 C.3          1 MDS602   0.0000
     8 C8          41.8170    33.6220    35.7300 C.3          1 MDS602   0.0000
     9 S2          40.9190    32.0730    36.0570 S.3          1 MDS602   0.0000
    10 C9          41.5010    31.0680    34.6920 C.3          1 MDS602   0.0000
    11 H1          38.9176    39.1574    37.3670 H            1 MDS602   0.0000
    12 H2          40.2999    37.6399    36.1160 H            1 MDS602   0.0000
    13 H3          39.6684    34.6012    34.6673 H            1 MDS602   0.0000
    14 H4          41.7622    36.2158    34.3408 H            1 MDS602   0.0000
    15 H5          40.6437    35.8021    33.2252 H            1 MDS602   0.0000
    16 H6          40.5698    34.6435    37.0037 H            1 MDS602   0.0000
    17 H7          41.7460    35.5761    36.3607 H            1 MDS602   0.0000
    18 H8          42.6906    33.5885    36.2155 H            1 MDS602   0.0000
    19 H9          41.9846    33.6876    34.7463 H            1 MDS602   0.0000
    20 H10         41.0803    30.1622    34.7419 H            1 MDS602   0.0000
    21 H11         41.2521    31.5040    33.8272 H            1 MDS602   0.0000
    22 H12         42.4954    30.9770    34.7453 H            1 MDS602   0.0000
    23 H13         40.4191    37.1258    34.1547 H            1 MDS602   0.0000
@<TRIPOS>BOND
     1    1    2       1
     2    2    3      am
     3    3    4       2
     4    3    5       1
     5    5    6       1
     6    5    7       1
     7    7    8       1
     8    8    9       1
     9    9   10       1
    10    1   11       1
    11    2   12       1
    12    5   13       1
    13    6   14       1
    14    6   15       1
    15    7   16       1
    16    7   17       1
    17    8   18       1
    18    8   19       1
    19   10   20       1
    20   10   21       1
    21   10   22       1
    22    6   23       1
@<TRIPOS>SUBSTRUCTURE
     1 MDS602      1 GROUP             4 A     MDS     0 **** MDS A 602
