@<TRIPOS>MOLECULE
3a16_PXO_3_ligand
   12    11     1     0     0
SMALL
NO_CHARGES


@<TRIPOS>ATOM
     1 C3          14.7190    26.9030    45.2310 C.3          1 PXO355   0.0000
     2 C2          16.1940    26.5860    45.0820 C.3          1 PXO355   0.0000
     3 C1          16.5860    25.4840    46.0550 C.2          1 PXO355   0.0000
     4 N1          17.7480    24.9480    46.1180 N.2          1 PXO355   0.0000
     5 O1          18.7700    25.3790    45.2450 O.3          1 PXO355   0.0000
     6 H1          14.4673    27.6275    44.5894 H            1 PXO355   0.0000
     7 H2          14.1805    26.0832    45.0360 H            1 PXO355   0.0000
     8 H3          14.5362    27.2073    46.1659 H            1 PXO355   0.0000
     9 H4          16.7311    27.4068    45.2764 H            1 PXO355   0.0000
    10 H5          16.3754    26.2827    44.1465 H            1 PXO355   0.0000
    11 H6          15.8873    25.1548    46.6902 H            1 PXO355   0.0000
    12 H7          19.6775    24.9617    45.2929 H            1 PXO355   0.0000
@<TRIPOS>BOND
     1    1    2       1
     2    2    3       1
     3    3    4       2
     4    4    5       1
     5    1    6       1
     6    1    7       1
     7    1    8       1
     8    2    9       1
     9    2   10       1
    10    3   11       1
    11    5   12       1
@<TRIPOS>SUBSTRUCTURE
     1 PXO355      1 GROUP             4 C     PXO     0 **** PXO C 355
