@<TRIPOS>MOLECULE
3r7w_GNP_2_ligand
   45    47     1     0     0
SMALL
NO_CHARGES


@<TRIPOS>ATOM
     1 PG           4.3740    77.4320    77.5980 P.3          1 GNP500   0.0000
     2 O1G          4.4530    77.8710    76.1490 O.co2        1 GNP500   0.0000
     3 O2G          3.0140    77.5350    78.2460 O.co2        1 GNP500  -1.0000
     4 O3G          5.0010    76.0500    77.6210 O.co2        1 GNP500  -1.0000
     5 N3B          5.2900    78.3970    78.4710 N.3          1 GNP500   0.0000
     6 PB           6.5730    79.1120    77.8620 P.3          1 GNP500   0.0000
     7 O1B          7.6670    78.1130    77.7910 O.co2        1 GNP500   0.0000
     8 O2B          6.1090    79.7380    76.5990 O.co2        1 GNP500  -1.0000
     9 O3A          7.0430    80.2220    78.8250 O.3          1 GNP500   0.0000
    10 PA           7.2540    81.7060    78.4670 P.3          1 GNP500   0.0000
    11 O1A          8.3080    81.7840    77.4330 O.co2        1 GNP500   0.0000
    12 O2A          5.9620    82.3740    78.1720 O.co2        1 GNP500  -1.0000
    13 O5'          7.8630    82.4510    79.7270 O.3          1 GNP500   0.0000
    14 C5'          7.3990    82.1450    81.0350 C.3          1 GNP500   0.0000
    15 C4'          8.1260    82.9660    82.0870 C.3          1 GNP500   0.0000
    16 O4'          9.5510    82.8960    81.8330 O.3          1 GNP500   0.0000
    17 C3'          7.7650    84.4580    82.1460 C.3          1 GNP500   0.0000
    18 O3'          7.4520    84.8560    83.4970 O.3          1 GNP500   0.0000
    19 C2'          9.0110    85.1580    81.5930 C.3          1 GNP500   0.0000
    20 O2'          9.2640    86.4240    82.1710 O.3          1 GNP500   0.0000
    21 C1'         10.0850    84.1850    82.0460 C.3          1 GNP500   0.0000
    22 N9          11.3370    84.2680    81.3180 N.pl3        1 GNP500   0.0000
    23 C8          11.5780    83.9280    80.0080 C.2          1 GNP500   0.0000
    24 N7          12.8220    84.1060    79.6660 N.2          1 GNP500   0.0000
    25 C5          13.4340    84.5840    80.8260 C.2          1 GNP500   0.0000
    26 C6          14.7770    84.9560    81.0820 C.2          1 GNP500   0.0000
    27 O6          15.7410    84.9380    80.3080 O.2          1 GNP500   0.0000
    28 N1          14.9610    85.3880    82.3950 N.pl3        1 GNP500   0.0000
    29 C2          13.9760    85.4540    83.3470 C.2          1 GNP500   0.0000
    30 N2          14.3530    85.8950    84.5550 N.pl3        1 GNP500   0.0000
    31 N3          12.7170    85.1070    83.1250 N.2          1 GNP500   0.0000
    32 C4          12.5270    84.6870    81.8510 C.2          1 GNP500   0.0000
    33 H3B          4.6925    79.1271    78.8026 H            1 GNP500   0.0000
    34 H5'1         7.5535    81.1738    81.2162 H            1 GNP500   0.0000
    35 H5'2         6.4201    82.3423    81.0875 H            1 GNP500   0.0000
    36 H4'          7.9450    82.5617    82.9836 H            1 GNP500   0.0000
    37 H3'          6.9827    84.6402    81.5503 H            1 GNP500   0.0000
    38 H6           7.2203    85.8287    83.5128 H            1 GNP500   0.0000
    39 H2'          8.9772    85.2180    80.5954 H            1 GNP500   0.0000
    40 H8          10.1612    86.4155    82.6126 H            1 GNP500   0.0000
    41 H1'         10.2596    84.3146    83.0221 H            1 GNP500   0.0000
    42 H10         10.8755    83.5821    79.3861 H            1 GNP500   0.0000
    43 H11         15.8818    85.6714    82.6630 H            1 GNP500   0.0000
    44 H12         13.6820    85.9665    85.2930 H            1 GNP500   0.0000
    45 H13         15.3053    86.1526    84.7184 H            1 GNP500   0.0000
@<TRIPOS>BOND
     1    1    2      ar
     2    1    3      ar
     3    1    4      ar
     4    1    5       1
     5    5    6       1
     6    6    7      ar
     7    6    8      ar
     8    6    9       1
     9    9   10       1
    10   10   11      ar
    11   10   12      ar
    12   10   13       1
    13   13   14       1
    14   14   15       1
    15   15   16       1
    16   15   17       1
    17   16   21       1
    18   17   18       1
    19   17   19       1
    20   19   20       1
    21   19   21       1
    22   21   22       1
    23   22   23       1
    24   22   32       1
    25   23   24       2
    26   24   25       1
    27   25   26       1
    28   25   32       2
    29   26   27       2
    30   26   28       1
    31   28   29       1
    32   29   30       1
    33   29   31       2
    34   31   32       1
    35   30   45       1
    36   30   44       1
    37    5   33       1
    38   28   43       1
    39   23   42       1
    40   14   34       1
    41   14   35       1
    42   15   36       1
    43   17   37       1
    44   18   38       1
    45   19   39       1
    46   20   40       1
    47   21   41       1
@<TRIPOS>SUBSTRUCTURE
     1 GNP500      1 GROUP             4 B     GNP     0 **** GNP B 500
