@<TRIPOS>MOLECULE
3kpb_SAM_2_ligand
   50    52     1     0     0
SMALL
NO_CHARGES


@<TRIPOS>ATOM
     1 N           13.6200    12.2430    22.9750 N.4          1 SAM1000   1.0000
     2 CA          13.7370    12.9530    21.6860 C.3          1 SAM1000   0.0000
     3 C           12.4340    13.7270    21.4510 C.2          1 SAM1000   0.0000
     4 O           11.4780    13.2250    20.8570 O.co2        1 SAM1000   0.0000
     5 OXT         12.2950    14.8690    21.8880 O.co2        1 SAM1000  -1.0000
     6 CB          14.0280    11.9190    20.5570 C.3          1 SAM1000   0.0000
     7 CG          14.4150    12.5770    19.2070 C.3          1 SAM1000   0.0000
     8 SD          13.4390    11.8870    17.8180 S.3          1 SAM1000   1.0000
     9 CE          14.0030    12.8520    16.4170 C.3          1 SAM1000   0.0000
    10 C5'         11.7260    12.5210    18.0330 C.3          1 SAM1000   0.0000
    11 C4'         10.7520    11.3810    18.3600 C.3          1 SAM1000   0.0000
    12 O4'         11.3160    10.5220    19.3930 O.3          1 SAM1000   0.0000
    13 C3'          9.4090    11.8580    18.9290 C.3          1 SAM1000   0.0000
    14 O3'          8.4270    11.6030    17.9100 O.3          1 SAM1000   0.0000
    15 C2'          9.1800    10.9410    20.1440 C.3          1 SAM1000   0.0000
    16 O2'          7.8210    10.4550    20.1750 O.3          1 SAM1000   0.0000
    17 C1'         10.1800     9.8100    19.8780 C.3          1 SAM1000   0.0000
    18 N9          10.5040     9.0710    21.1170 N.pl3        1 SAM1000   0.0000
    19 C8          10.8800     9.5770    22.2940 C.2          1 SAM1000   0.0000
    20 N7          11.0660     8.5750    23.1600 N.2          1 SAM1000   0.0000
    21 C5          10.8060     7.4310    22.5300 C.ar         1 SAM1000   0.0000
    22 C6          10.8240     6.0930    22.9030 C.ar         1 SAM1000   0.0000
    23 N6          11.1620     5.7340    24.1400 N.pl3        1 SAM1000   0.0000
    24 N1          10.4950     5.1680    21.9890 N.ar         1 SAM1000   0.0000
    25 C2          10.1600     5.5140    20.7520 C.ar         1 SAM1000   0.0000
    26 N3          10.1320     6.7800    20.3640 N.ar         1 SAM1000   0.0000
    27 C4          10.4500     7.7520    21.2320 C.ar         1 SAM1000   0.0000
    28 H1          13.7118    11.2589    22.8230 H            1 SAM1000   0.0000
    29 H2          14.3419    12.5536    23.5934 H            1 SAM1000   0.0000
    30 HA          14.4966    13.6013    21.7384 H            1 SAM1000   0.0000
    31 HB1         13.2082    11.3639    20.4160 H            1 SAM1000   0.0000
    32 HB2         14.7818    11.3315    20.8513 H            1 SAM1000   0.0000
    33 HG1         15.3864    12.4150    19.0334 H            1 SAM1000   0.0000
    34 HG2         14.2464    13.5610    19.2652 H            1 SAM1000   0.0000
    35 HE1         13.5253    12.5517    15.5914 H            1 SAM1000   0.0000
    36 HE2         13.8109    13.8198    16.5799 H            1 SAM1000   0.0000
    37 HE3         14.9875    12.7230    16.2980 H            1 SAM1000   0.0000
    38 H5'1        11.4343    12.9672    17.1870 H            1 SAM1000   0.0000
    39 H5'2        11.7149    13.1847    18.7809 H            1 SAM1000   0.0000
    40 H4'         10.5875    10.8405    17.5349 H            1 SAM1000   0.0000
    41 H3'          9.4353    12.8232    19.1892 H            1 SAM1000   0.0000
    42 H15          7.5276    11.8979    18.2326 H            1 SAM1000   0.0000
    43 H2'          9.4041    11.4180    20.9938 H            1 SAM1000   0.0000
    44 H17          7.1913    11.2296    20.2341 H            1 SAM1000   0.0000
    45 H1'          9.8295     9.1875    19.1782 H            1 SAM1000   0.0000
    46 H19         11.0028    10.5488    22.4955 H            1 SAM1000   0.0000
    47 H20         11.1708     4.7672    24.3953 H            1 SAM1000   0.0000
    48 H21         11.4070     6.4312    24.8137 H            1 SAM1000   0.0000
    49 H22          9.9221     4.7988    20.0948 H            1 SAM1000   0.0000
    50 H23         12.7270    12.4356    23.3818 H            1 SAM1000   0.0000
@<TRIPOS>BOND
     1    1    2       1
     2    2    3       1
     3    2    6       1
     4    3    4      ar
     5    3    5      ar
     6    6    7       1
     7    7    8       1
     8    8    9       1
     9    8   10       1
    10   10   11       1
    11   11   12       1
    12   11   13       1
    13   12   17       1
    14   13   14       1
    15   13   15       1
    16   15   16       1
    17   15   17       1
    18   17   18       1
    19   18   19       1
    20   18   27       1
    21   19   20       2
    22   20   21       1
    23   21   22      ar
    24   21   27      ar
    25   22   23       1
    26   22   24      ar
    27   24   25      ar
    28   25   26      ar
    29   26   27      ar
    30    1   28       1
    31    1   29       1
    32    2   30       1
    33    1   50       1
    34    6   31       1
    35    6   32       1
    36    7   33       1
    37    7   34       1
    38    9   35       1
    39    9   36       1
    40    9   37       1
    41   10   38       1
    42   10   39       1
    43   11   40       1
    44   13   41       1
    45   14   42       1
    46   15   43       1
    47   16   44       1
    48   17   45       1
    49   19   46       1
    50   23   47       1
    51   23   48       1
    52   25   49       1
@<TRIPOS>SUBSTRUCTURE
     1 SAM1000     1 GROUP             4 C     SAM     0 **** SAM C1000
