@<TRIPOS>MOLECULE
3u2l_FAD_1_ligand
   84    89     1     0     0
SMALL
NO_CHARGES


@<TRIPOS>ATOM
     1 PA           6.8050    29.1620     7.6090 P.3          1 FAD301   0.0000
     2 O1A          5.4260    28.8230     8.1040 O.co2        1 FAD301   0.0000
     3 O2A          7.3670    28.3460     6.4880 O.co2        1 FAD301  -1.0000
     4 O5B          7.7840    29.0650     8.8920 O.3          1 FAD301   0.0000
     5 C5B          7.4580    29.5790    10.1450 C.3          1 FAD301   0.0000
     6 C4B          8.7910    29.9240    10.8400 C.3          1 FAD301   0.0000
     7 O4B          9.5590    28.7500    11.0080 O.3          1 FAD301   0.0000
     8 C3B          9.6980    30.8990    10.1010 C.3          1 FAD301   0.0000
     9 O3B          9.2960    32.2210    10.3570 O.3          1 FAD301   0.0000
    10 C2B         11.0740    30.5740    10.6970 C.3          1 FAD301   0.0000
    11 O2B         11.1540    31.2420    11.9170 O.3          1 FAD301   0.0000
    12 C1B         10.9590    29.0870    11.0220 C.3          1 FAD301   0.0000
    13 N9A         11.5850    28.1900    10.0150 N.pl3        1 FAD301   0.0000
    14 C8A         11.5830    28.3640     8.6250 C.2          1 FAD301   0.0000
    15 N7A         12.2050    27.3190     8.0450 N.2          1 FAD301   0.0000
    16 C5A         12.6000    26.4980     9.0530 C.ar         1 FAD301   0.0000
    17 C6A         13.2900    25.3200     9.0720 C.ar         1 FAD301   0.0000
    18 N6A         13.6600    24.7280     7.9350 N.pl3        1 FAD301   0.0000
    19 N1A         13.4970    24.6740    10.2600 N.ar         1 FAD301   0.0000
    20 C2A         13.1240    25.1760    11.4770 C.ar         1 FAD301   0.0000
    21 N3A         12.4820    26.3870    11.4860 N.ar         1 FAD301   0.0000
    22 C4A         12.2030    27.0270    10.2950 C.ar         1 FAD301   0.0000
    23 N1           2.3940    25.6190     1.6780 N.2          1 FAD301   0.0000
    24 C2           2.3010    25.5390     0.2820 C.2          1 FAD301   0.0000
    25 O2           2.0060    26.5620    -0.3290 O.2          1 FAD301   0.0000
    26 N3           2.5120    24.3420    -0.3960 N.pl3        1 FAD301   0.0000
    27 C4           2.7980    23.2060     0.3170 C.2          1 FAD301   0.0000
    28 O4           2.9520    22.1420    -0.2770 O.2          1 FAD301   0.0000
    29 C4X          2.8960    23.2810     1.7210 C.2          1 FAD301   0.0000
    30 N5           3.2030    22.1570     2.4540 N.2          1 FAD301   0.0000
    31 C5X          3.2680    22.2380     3.8440 C.ar         1 FAD301   0.0000
    32 C6           3.5550    21.0750     4.5850 C.ar         1 FAD301   0.0000
    33 C7           3.6370    21.1610     6.0050 C.ar         1 FAD301   0.0000
    34 C7M          3.9730    19.9140     6.7840 C.3          1 FAD301   0.0000
    35 C8           3.4300    22.3980     6.6430 C.ar         1 FAD301   0.0000
    36 C8M          3.4910    22.5320     8.1710 C.3          1 FAD301   0.0000
    37 C9           3.1470    23.5410     5.9050 C.ar         1 FAD301   0.0000
    38 C9A          3.0760    23.4700     4.4970 C.ar         1 FAD301   0.0000
    39 N10          2.8180    24.6170     3.7500 N.pl3        1 FAD301   0.0000
    40 C10          2.7000    24.5070     2.3800 C.2          1 FAD301   0.0000
    41 C1'          2.6310    25.9480     4.3740 C.3          1 FAD301   0.0000
    42 C2'          4.0740    26.5690     4.3610 C.3          1 FAD301   0.0000
    43 O2'          5.1460    25.6300     4.5570 O.3          1 FAD301   0.0000
    44 C3'          4.1950    27.8180     5.2530 C.3          1 FAD301   0.0000
    45 O3'          3.8210    27.5470     6.5750 O.3          1 FAD301   0.0000
    46 C4'          3.4180    29.0640     4.7630 C.3          1 FAD301   0.0000
    47 O4'          3.7570    29.2610     3.3740 O.3          1 FAD301   0.0000
    48 C5'          3.7850    30.3340     5.5180 C.3          1 FAD301   0.0000
    49 O5'          5.2060    30.4640     5.4270 O.3          1 FAD301   0.0000
    50 P            6.0150    31.5540     6.2850 P.3          1 FAD301   0.0000
    51 O1P          6.9570    32.3920     5.4210 O.co2        1 FAD301   0.0000
    52 O2P          5.1410    32.4540     7.1050 O.co2        1 FAD301  -1.0000
    53 O3P          6.9830    30.7380     7.2700 O.3          1 FAD301   0.0000
    54 H5B1         6.9573    28.8970    10.6781 H            1 FAD301   0.0000
    55 H5B2         6.8978    30.4013    10.0455 H            1 FAD301   0.0000
    56 H4B          8.5887    30.3021    11.7434 H            1 FAD301   0.0000
    57 H3B          9.6878    30.7127     9.1186 H            1 FAD301   0.0000
    58 H5           9.8972    32.8529     9.8678 H            1 FAD301   0.0000
    59 H2B         11.8319    30.7861    10.0800 H            1 FAD301   0.0000
    60 H7          11.5394    32.1535    11.7733 H            1 FAD301   0.0000
    61 H1B         11.3443    28.9051    11.9267 H            1 FAD301   0.0000
    62 H8A         11.1829    29.1414     8.1396 H            1 FAD301   0.0000
    63 H6A1        14.1650    23.8653     7.9618 H            1 FAD301   0.0000
    64 H6A2        13.4323    25.1470     7.0560 H            1 FAD301   0.0000
    65 H2A         13.3120    24.6800    12.3247 H            1 FAD301   0.0000
    66 H13          2.4556    24.3106    -1.3939 H            1 FAD301   0.0000
    67 H14          3.6992    20.2010     4.1209 H            1 FAD301   0.0000
    68 H7M1         3.9948    20.1269     7.7608 H            1 FAD301   0.0000
    69 H7M2         3.2788    19.2154     6.6106 H            1 FAD301   0.0000
    70 H7M3         4.8682    19.5728     6.4971 H            1 FAD301   0.0000
    71 H8M1         3.3187    23.4825     8.4294 H            1 FAD301   0.0000
    72 H8M2         2.7972    21.9429     8.5852 H            1 FAD301   0.0000
    73 H8M3         4.3969    22.2578     8.4938 H            1 FAD301   0.0000
    74 H21          2.9939    24.4126     6.3707 H            1 FAD301   0.0000
    75 H1'1         2.2893    25.8588     5.3095 H            1 FAD301   0.0000
    76 H1'2         1.9971    26.5069     3.8394 H            1 FAD301   0.0000
    77 H2'          4.1982    26.9078     3.4284 H            1 FAD301   0.0000
    78 H25          6.0211    26.1134     4.5334 H            1 FAD301   0.0000
    79 H3'          5.1629    28.0686     5.2711 H            1 FAD301   0.0000
    80 H27          4.3329    28.1418     7.1948 H            1 FAD301   0.0000
    81 H4'          2.4353    28.8985     4.8464 H            1 FAD301   0.0000
    82 H29          2.9278    29.2073     2.8176 H            1 FAD301   0.0000
    83 H5'1         3.5055    30.2598     6.4753 H            1 FAD301   0.0000
    84 H5'2         3.3383    31.1253     5.1006 H            1 FAD301   0.0000
@<TRIPOS>BOND
     1    1    2      ar
     2    1    3      ar
     3    1    4       1
     4    1   53       1
     5    4    5       1
     6    5    6       1
     7    6    7       1
     8    6    8       1
     9    7   12       1
    10    8    9       1
    11    8   10       1
    12   10   11       1
    13   10   12       1
    14   12   13       1
    15   13   14       1
    16   13   22       1
    17   14   15       2
    18   15   16       1
    19   16   17      ar
    20   16   22      ar
    21   17   18       1
    22   17   19      ar
    23   19   20      ar
    24   20   21      ar
    25   21   22      ar
    26   23   24       1
    27   23   40       2
    28   24   25       2
    29   24   26       1
    30   26   27       1
    31   27   28       2
    32   27   29       1
    33   29   30       2
    34   29   40       1
    35   30   31       1
    36   31   32      ar
    37   31   38      ar
    38   32   33      ar
    39   33   34       1
    40   33   35      ar
    41   35   36       1
    42   35   37      ar
    43   37   38      ar
    44   38   39       1
    45   39   40       1
    46   39   41       1
    47   41   42       1
    48   42   43       1
    49   42   44       1
    50   44   45       1
    51   44   46       1
    52   46   47       1
    53   46   48       1
    54   48   49       1
    55   49   50       1
    56   50   51      ar
    57   50   52      ar
    58   50   53       1
    59   48   84       1
    60    5   54       1
    61    5   55       1
    62    6   56       1
    63    8   57       1
    64    9   58       1
    65   10   59       1
    66   11   60       1
    67   12   61       1
    68   14   62       1
    69   18   63       1
    70   18   64       1
    71   20   65       1
    72   26   66       1
    73   32   67       1
    74   34   68       1
    75   34   69       1
    76   34   70       1
    77   36   71       1
    78   36   72       1
    79   36   73       1
    80   37   74       1
    81   41   75       1
    82   41   76       1
    83   42   77       1
    84   43   78       1
    85   44   79       1
    86   45   80       1
    87   46   81       1
    88   47   82       1
    89   48   83       1
@<TRIPOS>SUBSTRUCTURE
     1 FAD301      1 GROUP             4 A     FAD     0 **** FAD A 301
