@<TRIPOS>MOLECULE
4rrf_A3S_4_ligand
   45    47     1     0     0
SMALL
NO_CHARGES


@<TRIPOS>ATOM
     1 O5'         34.3210     7.2910    15.4330 O.3          1 A3S201   0.0000
     2 C5'         35.4340     6.3920    15.3410 C.3          1 A3S201   0.0000
     3 C4'         35.1440     5.1660    16.2550 C.3          1 A3S201   0.0000
     4 O4'         35.1480     5.5990    17.6060 O.3          1 A3S201   0.0000
     5 C1'         34.0370     4.9420    18.2990 C.3          1 A3S201   0.0000
     6 N9          33.1200     5.9550    18.8620 N.pl3        1 A3S201   0.0000
     7 C4          31.9320     5.7160    19.4320 C.ar         1 A3S201   0.0000
     8 N3          31.1580     4.6280    19.5650 N.ar         1 A3S201   0.0000
     9 C2          29.9690     4.6460    20.1820 C.ar         1 A3S201   0.0000
    10 N1          29.5380     5.8070    20.6520 N.ar         1 A3S201   0.0000
    11 C6          30.2340     6.9450    20.5540 C.ar         1 A3S201   0.0000
    12 N6          29.7420     8.0910    21.0910 N.pl3        1 A3S201   0.0000
    13 C5          31.4940     6.9300    19.9470 C.ar         1 A3S201   0.0000
    14 N7          32.4060     7.8690    19.6680 N.2          1 A3S201   0.0000
    15 C8          33.4170     7.2710    19.0240 C.2          1 A3S201   0.0000
    16 C2'         33.4910     3.8800    17.3600 C.3          1 A3S201   0.0000
    17 O2'         34.3700     2.8120    17.5840 O.3          1 A3S201   0.0000
    18 C3'         33.7790     4.5930    16.0360 C.3          1 A3S201   0.0000
    19 N8          33.8810     3.5830    14.9700 N.am         1 A3S201   0.0000
    20 N           32.0590     0.7740    13.5740 N.4          1 A3S201   1.0000
    21 CA          32.9810     1.9160    13.4190 C.3          1 A3S201   0.0000
    22 CB          32.7060     2.6670    12.1290 C.3          1 A3S201   0.0000
    23 OG          33.8410     3.5100    11.8710 O.3          1 A3S201   0.0000
    24 C           32.7920     2.9470    14.5340 C.2          1 A3S201   0.0000
    25 O           31.5320     3.2170    14.9500 O.2          1 A3S201   0.0000
    26 H5'         34.4871     8.0877    14.8519 H            1 A3S201   0.0000
    27 H5'1        36.2675     6.8525    15.6463 H            1 A3S201   0.0000
    28 H5'2        35.5478     6.0896    14.3946 H            1 A3S201   0.0000
    29 H4'         35.8398     4.4611    16.1170 H            1 A3S201   0.0000
    30 H1'         34.4352     4.4558    19.0768 H            1 A3S201   0.0000
    31 H6          29.4261     3.8125    20.2841 H            1 A3S201   0.0000
    32 H7          30.2628     8.9415    21.0174 H            1 A3S201   0.0000
    33 H8          28.8589     8.0845    21.5601 H            1 A3S201   0.0000
    34 H9          34.2545     7.7203    18.7129 H            1 A3S201   0.0000
    35 H2'         32.5271     3.6574    17.5064 H            1 A3S201   0.0000
    36 H11         34.0172     2.2395    18.3241 H            1 A3S201   0.0000
    37 H3'         33.1002     5.2973    15.8283 H            1 A3S201   0.0000
    38 H13         34.7728     3.3720    14.5697 H            1 A3S201   0.0000
    39 H14         32.2603     0.2968    14.4294 H            1 A3S201   0.0000
    40 H15         31.1162     1.1068    13.5918 H            1 A3S201   0.0000
    41 HA          33.9256     1.5878    13.4217 H            1 A3S201   0.0000
    42 HB1         31.8817     3.2245    12.2273 H            1 A3S201   0.0000
    43 HB2         32.5830     2.0199    11.3766 H            1 A3S201   0.0000
    44 HG          34.2484     3.2608    10.9924 H            1 A3S201   0.0000
    45 H20         32.1758     0.1446    12.8058 H            1 A3S201   0.0000
@<TRIPOS>BOND
     1    1    2       1
     2    2    3       1
     3    3    4       1
     4    3   18       1
     5    4    5       1
     6    5    6       1
     7    5   16       1
     8    6    7       1
     9    6   15       1
    10    7    8      ar
    11    7   13      ar
    12    8    9      ar
    13    9   10      ar
    14   10   11      ar
    15   11   12       1
    16   11   13      ar
    17   13   14       1
    18   14   15       2
    19   16   17       1
    20   16   18       1
    21   18   19       1
    22   19   24      am
    23   20   21       1
    24   21   22       1
    25   21   24       1
    26   22   23       1
    27   24   25       2
    28    1   26       1
    29    2   27       1
    30    2   28       1
    31    3   29       1
    32    5   30       1
    33    9   31       1
    34   12   32       1
    35   12   33       1
    36   15   34       1
    37   16   35       1
    38   17   36       1
    39   18   37       1
    40   19   38       1
    41   20   39       1
    42   20   40       1
    43   21   41       1
    44   22   42       1
    45   22   43       1
    46   23   44       1
    47   20   45       1
@<TRIPOS>SUBSTRUCTURE
     1 A3S201      1 GROUP             4 D     A3S     0 **** A3S D 201
