@<TRIPOS>MOLECULE
4a39_GEM_1_ligand
   27    26     1     0     0
SMALL
NO_CHARGES


@<TRIPOS>ATOM
     1 C8          -2.1810    -7.2980     8.6020 C.3          1 GEM1377   0.0000
     2 S7          -2.7340    -7.3290     6.8580 S.3          1 GEM1377   0.0000
     3 C6          -1.2700    -8.0780     6.0560 C.3          1 GEM1377   0.0000
     4 C5           0.0600    -7.7900     6.7580 C.3          1 GEM1377   0.0000
     5 N3           0.1430    -8.5280     8.0260 N.pl3        1 GEM1377   1.0000
     6 C1           1.0610    -9.4820     8.1700 C.cat        1 GEM1377   0.0000
     7 N4           1.8810    -9.7620     7.1600 N.pl3        1 GEM1377   0.0000
     8 N2           1.1580   -10.1620     9.3080 N.pl3        1 GEM1377   0.0000
     9 C9          -3.1300    -8.0870     9.5070 C.2          1 GEM1377   0.0000
    10 O14         -4.0620    -8.7200     8.9610 O.co2        1 GEM1377   0.0000
    11 O15         -2.9020    -8.0400    10.7330 O.co2        1 GEM1377  -1.0000
    12 C10         -2.0280    -5.8600     9.1020 C.3          1 GEM1377   0.0000
    13 C11         -3.3560    -5.0990     9.0680 C.2          1 GEM1377   0.0000
    14 O12         -3.3700    -3.9910     8.4870 O.co2        1 GEM1377   0.0000
    15 O13         -4.3270    -5.6350     9.6410 O.co2        1 GEM1377  -1.0000
    16 H1          -1.2824    -7.7346     8.6460 H            1 GEM1377   0.0000
    17 H2          -1.2120    -7.7259     5.1218 H            1 GEM1377   0.0000
    18 H3          -1.4011    -9.0691     6.0311 H            1 GEM1377   0.0000
    19 H4           0.1291    -6.8096     6.9427 H            1 GEM1377   0.0000
    20 H5           0.8135    -8.0712     6.1637 H            1 GEM1377   0.0000
    21 H6          -0.4848    -8.3156     8.7748 H            1 GEM1377   0.0000
    22 H7           2.5727   -10.4771     7.2610 H            1 GEM1377   0.0000
    23 H8           1.8055    -9.2573     6.3000 H            1 GEM1377   0.0000
    24 H9           1.8508   -10.8765     9.4061 H            1 GEM1377   0.0000
    25 H10         -1.3678    -5.3842     8.5208 H            1 GEM1377   0.0000
    26 H11         -1.6905    -5.8792    10.0431 H            1 GEM1377   0.0000
    27 H12          0.5382    -9.9591    10.0661 H            1 GEM1377   0.0000
@<TRIPOS>BOND
     1    1    2       1
     2    1    9       1
     3    1   12       1
     4    2    3       1
     5    3    4       1
     6    4    5       1
     7    5    6      ar
     8    6    7      ar
     9    6    8      ar
    10    9   10      ar
    11    9   11      ar
    12   12   13       1
    13   13   14      ar
    14   13   15      ar
    15    1   16       1
    16    3   17       1
    17    3   18       1
    18    4   19       1
    19    4   20       1
    20    5   21       1
    21    7   22       1
    22    7   23       1
    23    8   24       1
    24    8   27       1
    25   12   25       1
    26   12   26       1
@<TRIPOS>SUBSTRUCTURE
     1 GEM1377     1 GROUP             4 A     GEM     0 **** GEM A1377
