@<TRIPOS>MOLECULE
4l9y_1VU_1_ligand
   88    90     1     0     0
SMALL
NO_CHARGES


@<TRIPOS>ATOM
     1 O14         21.9500    87.3220    84.0910 O.co2        1 1VU401   0.0000
     2 P2          21.1690    87.3800    82.8920 P.3          1 1VU401   0.0000
     3 O15         19.9910    88.4410    82.9500 O.co2        1 1VU401  -1.0000
     4 O16         22.1050    87.6650    81.6700 O.co2        1 1VU401  -1.0000
     5 O13         20.5170    85.9420    82.6780 O.3          1 1VU401   0.0000
     6 C23         19.3740    85.4540    83.3430 C.3          1 1VU401   0.0000
     7 C22         18.5600    84.8850    82.2410 C.3          1 1VU401   0.0000
     8 O12         18.7130    85.8110    81.1840 O.3          1 1VU401   0.0000
     9 C16         19.3080    83.5950    81.9610 C.3          1 1VU401   0.0000
    10 N2          18.4800    82.4390    81.5540 N.pl3        1 1VU401   0.0000
    11 C21         18.8230    81.5990    80.6130 C.ar         1 1VU401   0.0000
    12 N6          19.8880    81.5340    79.8320 N.ar         1 1VU401   0.0000
    13 C20         19.9820    80.5440    78.9620 C.ar         1 1VU401   0.0000
    14 N5          19.0390    79.6080    78.8210 N.ar         1 1VU401   0.0000
    15 C19         17.9650    79.6320    79.5870 C.ar         1 1VU401   0.0000
    16 N4          17.0430    78.6730    79.4660 N.pl3        1 1VU401   0.0000
    17 C18         17.8420    80.6430    80.5210 C.ar         1 1VU401   0.0000
    18 N3          16.9220    80.9490    81.4410 N.2          1 1VU401   0.0000
    19 C17         17.3290    82.0460    82.0710 C.2          1 1VU401   0.0000
    20 O11         19.9520    83.2230    83.1710 O.3          1 1VU401   0.0000
    21 C15         19.8650    84.2640    84.1300 C.3          1 1VU401   0.0000
    22 C14         19.0220    83.8980    85.3330 C.3          1 1VU401   0.0000
    23 O10         17.6800    83.9160    84.9800 O.3          1 1VU401   0.0000
    24 P1          16.5180    83.6380    85.9620 P.3          1 1VU401   0.0000
    25 O8          15.9500    84.8770    86.4060 O.co2        1 1VU401   0.0000
    26 O9          16.8380    82.8810    87.2960 O.co2        1 1VU401  -1.0000
    27 O7          15.5120    82.8550    85.0280 O.3          1 1VU401   0.0000
    28 P           14.1910    83.4670    84.3950 P.3          1 1VU401   0.0000
    29 O5          13.3570    83.9650    85.4450 O.co2        1 1VU401   0.0000
    30 O6          14.5780    84.5370    83.2940 O.co2        1 1VU401  -1.0000
    31 O4          13.5010    82.2410    83.6940 O.3          1 1VU401   0.0000
    32 C13         13.1060    81.1260    84.4690 C.3          1 1VU401   0.0000
    33 C10         12.5630    80.0340    83.5640 C.3          1 1VU401   0.0000
    34 C11         12.2990    78.7480    84.3350 C.3          1 1VU401   0.0000
    35 C12         11.2370    80.4450    82.9640 C.3          1 1VU401   0.0000
    36 C9          13.5650    79.8310    82.4580 C.3          1 1VU401   0.0000
    37 O3          14.7060    79.3030    83.0360 O.3          1 1VU401   0.0000
    38 C8          13.0390    78.8780    81.4400 C.2          1 1VU401   0.0000
    39 O2          12.2130    79.2250    80.6530 O.2          1 1VU401   0.0000
    40 N1          13.5450    77.6680    81.4500 N.am         1 1VU401   0.0000
    41 C7          13.5570    76.8380    80.2770 C.3          1 1VU401   0.0000
    42 C6          12.2410    76.0970    80.1920 C.3          1 1VU401   0.0000
    43 C5          12.1530    75.2110    79.0150 C.2          1 1VU401   0.0000
    44 O1          12.6770    75.4890    77.9810 O.2          1 1VU401   0.0000
    45 N           11.4670    74.1240    79.1920 N.am         1 1VU401   0.0000
    46 C4          11.3990    73.0790    78.1810 C.3          1 1VU401   0.0000
    47 C3          11.5720    71.6840    78.7340 C.3          1 1VU401   0.0000
    48 S           10.6410    71.3990    80.1800 S.3          1 1VU401   0.0000
    49 C2           9.2710    70.5710    79.7530 C.2          1 1VU401   0.0000
    50 O            8.9780    70.5180    78.6180 O.2          1 1VU401   0.0000
    51 C1           8.3820    69.8700    80.7560 C.3          1 1VU401   0.0000
    52 C            8.9520    69.8920    82.1460 C.3          1 1VU401   0.0000
    53 H1          18.8965    86.1394    83.8927 H            1 1VU401   0.0000
    54 H2          17.6046    84.7363    82.4962 H            1 1VU401   0.0000
    55 H3          17.8886    85.8099    80.6179 H            1 1VU401   0.0000
    56 H4          20.0009    83.7641    81.2601 H            1 1VU401   0.0000
    57 H5          20.7957    80.4930    78.3829 H            1 1VU401   0.0000
    58 H6          16.2276    78.6875    80.0446 H            1 1VU401   0.0000
    59 H7          17.1682    77.9406    78.7968 H            1 1VU401   0.0000
    60 H8          16.8424    82.5011    82.8167 H            1 1VU401   0.0000
    61 H9          20.7902    84.4664    84.4511 H            1 1VU401   0.0000
    62 H10         19.1827    84.5588    86.0662 H            1 1VU401   0.0000
    63 H11         19.2714    82.9825    85.6487 H            1 1VU401   0.0000
    64 H12         12.3952    81.4058    85.1143 H            1 1VU401   0.0000
    65 H13         13.8955    80.7765    84.9736 H            1 1VU401   0.0000
    66 H14         11.9433    78.0522    83.7110 H            1 1VU401   0.0000
    67 H15         13.1518    78.4238    84.7445 H            1 1VU401   0.0000
    68 H16         11.6285    78.9232    85.0559 H            1 1VU401   0.0000
    69 H17         10.8976    79.7134    82.3727 H            1 1VU401   0.0000
    70 H18         10.5778    80.6143    83.6966 H            1 1VU401   0.0000
    71 H19         11.3588    81.2790    82.4259 H            1 1VU401   0.0000
    72 H20         13.7770    80.7076    82.0259 H            1 1VU401   0.0000
    73 H21         15.5084    79.5919    82.5138 H            1 1VU401   0.0000
    74 H22         13.9342    77.3123    82.2997 H            1 1VU401   0.0000
    75 H23         14.3092    76.1818    80.3371 H            1 1VU401   0.0000
    76 H24         13.6755    77.4073    79.4634 H            1 1VU401   0.0000
    77 H25         11.5005    76.7673    80.1424 H            1 1VU401   0.0000
    78 H26         12.1338    75.5423    81.0171 H            1 1VU401   0.0000
    79 H27         10.9691    74.0002    80.0504 H            1 1VU401   0.0000
    80 H28         12.1207    73.2434    77.5085 H            1 1VU401   0.0000
    81 H29         10.5069    73.1319    77.7323 H            1 1VU401   0.0000
    82 H30         12.5392    71.5436    78.9458 H            1 1VU401   0.0000
    83 H31         11.2848    71.0276    78.0364 H            1 1VU401   0.0000
    84 H32          8.2667    68.9182    80.4719 H            1 1VU401   0.0000
    85 H33          7.4914    70.3246    80.7676 H            1 1VU401   0.0000
    86 H34          8.3298    69.4180    82.7690 H            1 1VU401   0.0000
    87 H35          9.8405    69.4331    82.1492 H            1 1VU401   0.0000
    88 H36          9.0651    70.8395    82.4449 H            1 1VU401   0.0000
@<TRIPOS>BOND
     1    1    2      ar
     2    2    3      ar
     3    2    4      ar
     4    2    5       1
     5    5    6       1
     6    6    7       1
     7    6   21       1
     8    7    8       1
     9    7    9       1
    10    9   10       1
    11    9   20       1
    12   10   11       1
    13   10   19       1
    14   11   12      ar
    15   11   17      ar
    16   12   13      ar
    17   13   14      ar
    18   14   15      ar
    19   15   16       1
    20   15   17      ar
    21   17   18       1
    22   18   19       2
    23   20   21       1
    24   21   22       1
    25   22   23       1
    26   23   24       1
    27   24   25      ar
    28   24   26      ar
    29   24   27       1
    30   27   28       1
    31   28   29      ar
    32   28   30      ar
    33   28   31       1
    34   31   32       1
    35   32   33       1
    36   33   34       1
    37   33   35       1
    38   33   36       1
    39   36   37       1
    40   36   38       1
    41   38   39       2
    42   38   40      am
    43   40   41       1
    44   41   42       1
    45   42   43       1
    46   43   44       2
    47   43   45      am
    48   45   46       1
    49   46   47       1
    50   47   48       1
    51   48   49       1
    52   49   50       2
    53   49   51       1
    54   51   52       1
    55   52   88       1
    56   52   87       1
    57    6   53       1
    58    7   54       1
    59    8   55       1
    60    9   56       1
    61   13   57       1
    62   16   58       1
    63   16   59       1
    64   19   60       1
    65   21   61       1
    66   22   62       1
    67   22   63       1
    68   52   86       1
    69   51   85       1
    70   32   64       1
    71   32   65       1
    72   34   66       1
    73   34   67       1
    74   34   68       1
    75   35   69       1
    76   35   70       1
    77   35   71       1
    78   36   72       1
    79   37   73       1
    80   40   74       1
    81   41   75       1
    82   41   76       1
    83   42   77       1
    84   42   78       1
    85   45   79       1
    86   46   80       1
    87   46   81       1
    88   47   82       1
    89   47   83       1
    90   51   84       1
@<TRIPOS>SUBSTRUCTURE
     1 1VU401      1 GROUP             4 B     1VU     0 **** 1VU B 401
