@<TRIPOS>MOLECULE
3tqc_ADP_1_ligand
   39    41     1     0     0
SMALL
NO_CHARGES


@<TRIPOS>ATOM
     1 PB          -4.3910    -5.7810   -21.6650 P.3          1 ADP500   0.0000
     2 O1B         -3.2400    -5.5830   -22.5920 O.co2        1 ADP500   0.0000
     3 O2B         -5.3670    -4.6150   -21.6690 O.co2        1 ADP500  -1.0000
     4 O3B         -4.0040    -6.1910   -20.2490 O.co2        1 ADP500  -1.0000
     5 PA          -4.6770    -8.1770   -23.3150 P.3          1 ADP500   0.0000
     6 O1A         -4.4580    -7.5690   -24.6740 O.co2        1 ADP500   0.0000
     7 O2A         -3.6020    -9.0320   -22.7130 O.co2        1 ADP500  -1.0000
     8 O3A         -5.2070    -7.0450   -22.2740 O.3          1 ADP500   0.0000
     9 O5'         -5.9160    -9.1620   -23.4390 O.3          1 ADP500   0.0000
    10 C5'         -6.5730    -9.6490   -22.2810 C.3          1 ADP500   0.0000
    11 C4'         -7.1160   -11.0370   -22.5490 C.3          1 ADP500   0.0000
    12 O4'         -8.1980   -10.9420   -23.4820 O.3          1 ADP500   0.0000
    13 C3'         -6.0650   -11.9170   -23.1860 C.3          1 ADP500   0.0000
    14 O3'         -6.2390   -13.2730   -22.7590 O.3          1 ADP500   0.0000
    15 C2'         -6.3490   -11.8180   -24.6670 C.3          1 ADP500   0.0000
    16 O2'         -5.9720   -13.0330   -25.3050 O.3          1 ADP500   0.0000
    17 C1'         -7.8580   -11.5940   -24.7060 C.3          1 ADP500   0.0000
    18 N9          -8.3080   -10.7260   -25.8020 N.pl3        1 ADP500   0.0000
    19 C8          -7.9700    -9.4300   -25.9510 C.2          1 ADP500   0.0000
    20 N7          -8.5600    -8.8980   -27.0350 N.2          1 ADP500   0.0000
    21 C5          -9.2840    -9.8670   -27.5970 C.ar         1 ADP500   0.0000
    22 C6         -10.1460    -9.9350   -28.7850 C.ar         1 ADP500   0.0000
    23 N6         -10.2970    -8.8230   -29.5400 N.pl3        1 ADP500   0.0000
    24 N1         -10.7400   -11.1170   -29.0460 N.ar         1 ADP500   0.0000
    25 C2         -10.5720   -12.2070   -28.2500 C.ar         1 ADP500   0.0000
    26 N3          -9.7900   -12.2080   -27.1450 N.ar         1 ADP500   0.0000
    27 C4          -9.1350   -11.0780   -26.7840 C.ar         1 ADP500   0.0000
    28 H5'1        -7.3274    -9.0367   -22.0444 H            1 ADP500   0.0000
    29 H5'2        -5.9237    -9.6869   -21.5214 H            1 ADP500   0.0000
    30 H4'         -7.4357   -11.4494   -21.6959 H            1 ADP500   0.0000
    31 H3'         -5.1446   -11.5887   -22.9738 H            1 ADP500   0.0000
    32 H5          -6.4073   -13.8542   -23.5552 H            1 ADP500   0.0000
    33 H2'         -5.8648   -11.0412   -25.0696 H            1 ADP500   0.0000
    34 H7          -6.1600   -12.9672   -26.2850 H            1 ADP500   0.0000
    35 H1'         -8.3278   -12.4751   -24.7598 H            1 ADP500   0.0000
    36 H9          -7.3604    -8.9299   -25.3359 H            1 ADP500   0.0000
    37 H10        -10.8788    -8.8459   -30.3530 H            1 ADP500   0.0000
    38 H11         -9.8269    -7.9780   -29.2852 H            1 ADP500   0.0000
    39 H12        -11.0505   -13.0506   -28.4934 H            1 ADP500   0.0000
@<TRIPOS>BOND
     1    1    2      ar
     2    1    3      ar
     3    1    4      ar
     4    1    8       1
     5    5    6      ar
     6    5    7      ar
     7    5    8       1
     8    5    9       1
     9    9   10       1
    10   10   11       1
    11   11   12       1
    12   11   13       1
    13   12   17       1
    14   13   14       1
    15   13   15       1
    16   15   16       1
    17   15   17       1
    18   17   18       1
    19   18   19       1
    20   18   27       1
    21   19   20       2
    22   20   21       1
    23   21   22      ar
    24   21   27      ar
    25   22   23       1
    26   22   24      ar
    27   24   25      ar
    28   25   26      ar
    29   26   27      ar
    30   25   39       1
    31   23   38       1
    32   23   37       1
    33   10   28       1
    34   10   29       1
    35   11   30       1
    36   13   31       1
    37   14   32       1
    38   15   33       1
    39   16   34       1
    40   17   35       1
    41   19   36       1
@<TRIPOS>SUBSTRUCTURE
     1 ADP500      1 GROUP             4 A     ADP     0 **** ADP A 500
