@<TRIPOS>MOLECULE
4kx6_FAD_2_ligand
   84    89     1     0     0
SMALL
NO_CHARGES


@<TRIPOS>ATOM
     1 PA          16.5950   -40.4990   -20.0730 P.3          1 FAD601   0.0000
     2 O1A         17.6570   -41.2440   -19.2970 O.co2        1 FAD601   0.0000
     3 O2A         16.6480   -40.4850   -21.5840 O.co2        1 FAD601  -1.0000
     4 O5B         16.6010   -38.9670   -19.5900 O.3          1 FAD601   0.0000
     5 C5B         16.9830   -38.6300   -18.2620 C.3          1 FAD601   0.0000
     6 C4B         17.2950   -37.1460   -18.1730 C.3          1 FAD601   0.0000
     7 O4B         17.4370   -36.7910   -16.7970 O.3          1 FAD601   0.0000
     8 C3B         18.6100   -36.8040   -18.8620 C.3          1 FAD601   0.0000
     9 O3B         18.4870   -35.6100   -19.6360 O.3          1 FAD601   0.0000
    10 C2B         19.6040   -36.5900   -17.7400 C.3          1 FAD601   0.0000
    11 O2B         20.5420   -35.5480   -18.0290 O.3          1 FAD601   0.0000
    12 C1B         18.7250   -36.2140   -16.5590 C.3          1 FAD601   0.0000
    13 N9A         19.3020   -36.6460   -15.2570 N.pl3        1 FAD601   0.0000
    14 C8A         19.7370   -37.8720   -14.9040 C.2          1 FAD601   0.0000
    15 N7A         20.2010   -37.8650   -13.6250 N.2          1 FAD601   0.0000
    16 C5A         20.0620   -36.6160   -13.1440 C.ar         1 FAD601   0.0000
    17 C6A         20.3480   -35.9030   -11.8720 C.ar         1 FAD601   0.0000
    18 N6A         20.8950   -36.5410   -10.8120 N.pl3        1 FAD601   0.0000
    19 N1A         20.0430   -34.5850   -11.8080 N.ar         1 FAD601   0.0000
    20 C2A         19.4950   -33.9210   -12.8500 C.ar         1 FAD601   0.0000
    21 N3A         19.2130   -34.5070   -14.0260 N.ar         1 FAD601   0.0000
    22 C4A         19.4700   -35.8210   -14.2290 C.ar         1 FAD601   0.0000
    23 N1          12.4380   -48.0350   -26.1250 N.2          1 FAD601   0.0000
    24 C2          11.6110   -48.2020   -27.1890 C.2          1 FAD601   0.0000
    25 O2          10.3880   -48.0000   -27.0230 O.2          1 FAD601   0.0000
    26 N3          12.0560   -48.5670   -28.4100 N.pl3        1 FAD601   0.0000
    27 C4          13.3520   -48.7980   -28.6520 C.2          1 FAD601   0.0000
    28 O4          13.7310   -49.1370   -29.7930 O.2          1 FAD601   0.0000
    29 C4X         14.3180   -48.6450   -27.5360 C.2          1 FAD601   0.0000
    30 N5          15.6360   -48.8630   -27.7010 N.2          1 FAD601   0.0000
    31 C5X         16.4960   -48.7140   -26.6720 C.ar         1 FAD601   0.0000
    32 C6          17.8480   -48.9490   -26.9000 C.ar         1 FAD601   0.0000
    33 C7          18.7750   -48.8050   -25.8740 C.ar         1 FAD601   0.0000
    34 C7M         20.2450   -49.0600   -26.1240 C.3          1 FAD601   0.0000
    35 C8          18.2890   -48.4000   -24.5280 C.ar         1 FAD601   0.0000
    36 C8M         19.2480   -48.2420   -23.3930 C.3          1 FAD601   0.0000
    37 C9          16.9430   -48.1640   -24.2910 C.ar         1 FAD601   0.0000
    38 C9A         16.0120   -48.3040   -25.3170 C.ar         1 FAD601   0.0000
    39 N10         14.6270   -48.0800   -25.1190 N.pl3        1 FAD601   0.0000
    40 C10         13.7680   -48.2390   -26.2230 C.2          1 FAD601   0.0000
    41 C1'         14.0620   -47.6560   -23.8280 C.3          1 FAD601   0.0000
    42 C2'         13.8160   -46.1400   -23.8930 C.3          1 FAD601   0.0000
    43 O2'         14.4470   -45.5780   -25.0540 O.3          1 FAD601   0.0000
    44 C3'         14.3320   -45.3620   -22.6800 C.3          1 FAD601   0.0000
    45 O3'         13.9390   -45.9940   -21.4600 O.3          1 FAD601   0.0000
    46 C4'         13.7950   -43.9320   -22.7030 C.3          1 FAD601   0.0000
    47 O4'         14.1990   -43.2950   -23.9220 O.3          1 FAD601   0.0000
    48 C5'         14.2870   -43.1050   -21.5150 C.3          1 FAD601   0.0000
    49 O5'         13.9970   -41.7190   -21.7200 O.3          1 FAD601   0.0000
    50 P           13.8060   -40.7240   -20.4690 P.3          1 FAD601   0.0000
    51 O1P         13.8530   -39.3010   -20.9660 O.co2        1 FAD601   0.0000
    52 O2P         12.5990   -41.2060   -19.7000 O.co2        1 FAD601  -1.0000
    53 O3P         15.1360   -40.9970   -19.5940 O.3          1 FAD601   0.0000
    54 H5B1        17.7951   -39.1551   -18.0075 H            1 FAD601   0.0000
    55 H5B2        16.2345   -38.8493   -17.6362 H            1 FAD601   0.0000
    56 H4B         16.5510   -36.6187   -18.5833 H            1 FAD601   0.0000
    57 H3B         18.9032   -37.5634   -19.4429 H            1 FAD601   0.0000
    58 H5          19.1340   -34.9261   -19.2989 H            1 FAD601   0.0000
    59 H2B         20.0895   -37.4426   -17.5466 H            1 FAD601   0.0000
    60 H7          20.1807   -34.6744   -17.7030 H            1 FAD601   0.0000
    61 H1B         18.6262   -35.2190   -16.5446 H            1 FAD601   0.0000
    62 H8A         19.7209   -38.6752   -15.4995 H            1 FAD601   0.0000
    63 H6A1        21.0782   -36.0394    -9.9665 H            1 FAD601   0.0000
    64 H6A2        21.1162   -37.5143   -10.8739 H            1 FAD601   0.0000
    65 H2A         19.2899   -32.9484   -12.7407 H            1 FAD601   0.0000
    66 H13         11.3978   -48.6678   -29.1560 H            1 FAD601   0.0000
    67 H14         18.1561   -49.2242   -27.8107 H            1 FAD601   0.0000
    68 H7M1        20.7579   -48.9089   -25.2790 H            1 FAD601   0.0000
    69 H7M2        20.3727   -50.0044   -26.4271 H            1 FAD601   0.0000
    70 H7M3        20.5761   -48.4353   -26.8312 H            1 FAD601   0.0000
    71 H8M1        18.7492   -47.9676   -22.5709 H            1 FAD601   0.0000
    72 H8M2        19.7130   -49.1114   -23.2261 H            1 FAD601   0.0000
    73 H8M3        19.9235   -47.5413   -23.6225 H            1 FAD601   0.0000
    74 H21         16.6393   -47.8917   -23.3780 H            1 FAD601   0.0000
    75 H1'1        14.7052   -47.8643   -23.0911 H            1 FAD601   0.0000
    76 H1'2        13.1990   -48.1332   -23.6620 H            1 FAD601   0.0000
    77 H2'         12.8307   -45.9860   -23.9672 H            1 FAD601   0.0000
    78 H25         14.7129   -44.6329   -24.8642 H            1 FAD601   0.0000
    79 H3'         15.3308   -45.3311   -22.7189 H            1 FAD601   0.0000
    80 H27         13.0699   -46.4695   -21.5959 H            1 FAD601   0.0000
    81 H4'         12.7959   -43.9658   -22.6764 H            1 FAD601   0.0000
    82 H29         14.7537   -42.4904   -23.7097 H            1 FAD601   0.0000
    83 H5'1        15.2750   -43.2242   -21.4168 H            1 FAD601   0.0000
    84 H5'2        13.8291   -43.4182   -20.6830 H            1 FAD601   0.0000
@<TRIPOS>BOND
     1    1    2      ar
     2    1    3      ar
     3    1    4       1
     4    1   53       1
     5    4    5       1
     6    5    6       1
     7    6    7       1
     8    6    8       1
     9    7   12       1
    10    8    9       1
    11    8   10       1
    12   10   11       1
    13   10   12       1
    14   12   13       1
    15   13   14       1
    16   13   22       1
    17   14   15       2
    18   15   16       1
    19   16   17      ar
    20   16   22      ar
    21   17   18       1
    22   17   19      ar
    23   19   20      ar
    24   20   21      ar
    25   21   22      ar
    26   23   24       1
    27   23   40       2
    28   24   25       2
    29   24   26       1
    30   26   27       1
    31   27   28       2
    32   27   29       1
    33   29   30       2
    34   29   40       1
    35   30   31       1
    36   31   32      ar
    37   31   38      ar
    38   32   33      ar
    39   33   34       1
    40   33   35      ar
    41   35   36       1
    42   35   37      ar
    43   37   38      ar
    44   38   39       1
    45   39   40       1
    46   39   41       1
    47   41   42       1
    48   42   43       1
    49   42   44       1
    50   44   45       1
    51   44   46       1
    52   46   47       1
    53   46   48       1
    54   48   49       1
    55   49   50       1
    56   50   51      ar
    57   50   52      ar
    58   50   53       1
    59   48   84       1
    60    5   54       1
    61    5   55       1
    62    6   56       1
    63    8   57       1
    64    9   58       1
    65   10   59       1
    66   11   60       1
    67   12   61       1
    68   14   62       1
    69   18   63       1
    70   18   64       1
    71   20   65       1
    72   26   66       1
    73   32   67       1
    74   34   68       1
    75   34   69       1
    76   34   70       1
    77   36   71       1
    78   36   72       1
    79   36   73       1
    80   37   74       1
    81   41   75       1
    82   41   76       1
    83   42   77       1
    84   43   78       1
    85   44   79       1
    86   45   80       1
    87   46   81       1
    88   47   82       1
    89   48   83       1
@<TRIPOS>SUBSTRUCTURE
     1 FAD601      1 GROUP             4 M     FAD     0 **** FAD M 601
