@<TRIPOS>MOLECULE
3onw_GDP_1_ligand
   40    42     1     0     0
SMALL
NO_CHARGES


@<TRIPOS>ATOM
     1 PB          16.3260    32.7950    20.9040 P.3          1 GDP401   0.0000
     2 O1B         15.3250    31.6940    21.0800 O.co2        1 GDP401   0.0000
     3 O2B         16.5850    33.5010    22.2120 O.co2        1 GDP401  -1.0000
     4 O3B         17.6340    32.2390    20.3840 O.co2        1 GDP401  -1.0000
     5 O3A         15.7560    33.8830    19.8610 O.3          1 GDP401   0.0000
     6 PA          14.1830    34.0720    19.6460 P.3          1 GDP401   0.0000
     7 O1A         13.4410    33.9890    20.9480 O.co2        1 GDP401   0.0000
     8 O2A         13.6320    33.0500    18.6970 O.co2        1 GDP401  -1.0000
     9 O5'         14.0630    35.5390    19.0020 O.3          1 GDP401   0.0000
    10 C5'         14.4310    36.7140    19.7160 C.3          1 GDP401   0.0000
    11 C4'         13.5160    37.8930    19.3760 C.3          1 GDP401   0.0000
    12 O4'         13.8510    38.3810    18.0880 O.3          1 GDP401   0.0000
    13 C3'         12.0290    37.5790    19.3130 C.3          1 GDP401   0.0000
    14 O3'         11.3420    38.7590    19.7780 O.3          1 GDP401   0.0000
    15 C2'         11.7420    37.3260    17.8320 C.3          1 GDP401   0.0000
    16 O2'         10.4300    37.7450    17.4270 O.3          1 GDP401   0.0000
    17 C1'         12.7570    38.2180    17.1710 C.3          1 GDP401   0.0000
    18 N9          13.3510    37.7160    15.9140 N.pl3        1 GDP401   0.0000
    19 C8          13.9850    36.5450    15.7040 C.2          1 GDP401   0.0000
    20 N7          14.4540    36.4760    14.4260 N.2          1 GDP401   0.0000
    21 C5          14.1190    37.6410    13.8160 C.2          1 GDP401   0.0000
    22 C6          14.2960    38.2380    12.4760 C.2          1 GDP401   0.0000
    23 O6          14.9060    37.6130    11.5720 O.2          1 GDP401   0.0000
    24 N1          13.8190    39.4750    12.2680 N.pl3        1 GDP401   0.0000
    25 C2          13.1710    40.1800    13.2170 C.2          1 GDP401   0.0000
    26 N2          12.7020    41.4070    12.9040 N.pl3        1 GDP401   0.0000
    27 N3          12.9690    39.6980    14.4630 N.2          1 GDP401   0.0000
    28 C4          13.4200    38.4620    14.8080 C.2          1 GDP401   0.0000
    29 H5'1        15.3721    36.9555    19.4795 H            1 GDP401   0.0000
    30 H5'2        14.3707    36.5294    20.6970 H            1 GDP401   0.0000
    31 H4'         13.6644    38.6206    20.0457 H            1 GDP401   0.0000
    32 H3'         11.8008    36.7807    19.8703 H            1 GDP401   0.0000
    33 H5          10.4498    38.8232    19.3310 H            1 GDP401   0.0000
    34 H2'         11.9003    36.3673    17.5956 H            1 GDP401   0.0000
    35 H7          10.1116    37.1652    16.6771 H            1 GDP401   0.0000
    36 H1'         12.3414    39.1112    16.9995 H            1 GDP401   0.0000
    37 H9          14.0959    35.8265    16.3907 H            1 GDP401   0.0000
    38 H10         13.9501    39.8925    11.3688 H            1 GDP401   0.0000
    39 H11         12.2183    41.9479    13.5921 H            1 GDP401   0.0000
    40 H12         12.8384    41.7748    11.9841 H            1 GDP401   0.0000
@<TRIPOS>BOND
     1    1    2      ar
     2    1    3      ar
     3    1    4      ar
     4    1    5       1
     5    5    6       1
     6    6    7      ar
     7    6    8      ar
     8    6    9       1
     9    9   10       1
    10   10   11       1
    11   11   12       1
    12   11   13       1
    13   12   17       1
    14   13   14       1
    15   13   15       1
    16   15   16       1
    17   15   17       1
    18   17   18       1
    19   18   19       1
    20   18   28       1
    21   19   20       2
    22   20   21       1
    23   21   22       1
    24   21   28       2
    25   22   23       2
    26   22   24       1
    27   24   25       1
    28   25   26       1
    29   25   27       2
    30   27   28       1
    31   26   40       1
    32   26   39       1
    33   24   38       1
    34   10   29       1
    35   10   30       1
    36   11   31       1
    37   13   32       1
    38   14   33       1
    39   15   34       1
    40   16   35       1
    41   17   36       1
    42   19   37       1
@<TRIPOS>SUBSTRUCTURE
     1 GDP401      1 GROUP             4 A     GDP     0 **** GDP A 401
