@<TRIPOS>MOLECULE
2d1y_NAD_1_ligand
   70    74     1     0     0
SMALL
NO_CHARGES


@<TRIPOS>ATOM
     1 PA          13.9090    50.9870    87.4120 P.3          1 NAD1001   0.0000
     2 O1A         12.4890    51.3220    87.4130 O.co2        1 NAD1001   0.0000
     3 O2A         14.6480    51.7260    88.4490 O.co2        1 NAD1001  -1.0000
     4 O5B         14.2500    49.4430    87.7460 O.3          1 NAD1001   0.0000
     5 C5B         13.3980    48.3350    87.3410 C.3          1 NAD1001   0.0000
     6 C4B         12.6720    47.7480    88.5360 C.3          1 NAD1001   0.0000
     7 O4B         13.5290    46.7330    89.1280 O.3          1 NAD1001   0.0000
     8 C3B         12.3590    48.7230    89.7000 C.3          1 NAD1001   0.0000
     9 O3B         10.9430    48.8620    89.9000 O.3          1 NAD1001   0.0000
    10 C2B         13.1320    48.0980    90.8800 C.3          1 NAD1001   0.0000
    11 O2B         12.4680    48.2860    92.1550 O.3          1 NAD1001   0.0000
    12 C1B         13.2160    46.6430    90.4770 C.3          1 NAD1001   0.0000
    13 N9A         14.2920    45.9640    91.1900 N.pl3        1 NAD1001   0.0000
    14 C8A         15.6290    46.3080    91.2830 C.2          1 NAD1001   0.0000
    15 N7A         16.3660    45.4530    92.0410 N.2          1 NAD1001   0.0000
    16 C5A         15.4190    44.5110    92.4460 C.ar         1 NAD1001   0.0000
    17 C6A         15.5320    43.3270    93.2770 C.ar         1 NAD1001   0.0000
    18 N6A         16.6770    42.9310    93.8320 N.pl3        1 NAD1001   0.0000
    19 N1A         14.3660    42.5990    93.4800 N.ar         1 NAD1001   0.0000
    20 C2A         13.1760    43.0210    92.8980 C.ar         1 NAD1001   0.0000
    21 N3A         12.9790    44.0860    92.1310 N.ar         1 NAD1001   0.0000
    22 C4A         14.1330    44.8020    91.9320 C.ar         1 NAD1001   0.0000
    23 O3          14.5180    51.1940    85.9860 O.3          1 NAD1001   0.0000
    24 PN          13.9360    51.2960    84.4890 P.3          1 NAD1001   0.0000
    25 O1N         14.3920    52.6030    83.9420 O.co2        1 NAD1001   0.0000
    26 O2N         12.4690    51.1490    84.5390 O.co2        1 NAD1001  -1.0000
    27 O5D         14.7050    50.1540    83.7080 O.3          1 NAD1001   0.0000
    28 C5D         14.1450    48.8250    83.6500 C.3          1 NAD1001   0.0000
    29 C4D         15.0850    47.9630    82.8320 C.3          1 NAD1001   0.0000
    30 O4D         15.4130    48.6660    81.5910 O.3          1 NAD1001   0.0000
    31 C3D         16.4080    47.6280    83.5170 C.3          1 NAD1001   0.0000
    32 O3D         16.8670    46.2890    83.2570 O.3          1 NAD1001   0.0000
    33 C2D         17.3280    48.7070    82.9430 C.3          1 NAD1001   0.0000
    34 O2D         18.7080    48.3100    83.1140 O.3          1 NAD1001   0.0000
    35 C1D         16.8180    48.7570    81.5110 C.3          1 NAD1001   0.0000
    36 N1N         17.2120    49.9790    80.7570 N.ar         1 NAD1001   1.0000
    37 C2N         16.5890    51.1760    81.1380 C.ar         1 NAD1001   0.0000
    38 C3N         16.9620    52.3200    80.4310 C.ar         1 NAD1001   0.0000
    39 C7N         16.3680    53.6940    80.7300 C.2          1 NAD1001   0.0000
    40 O7N         16.7520    54.6560    80.0750 O.2          1 NAD1001   0.0000
    41 N7N         15.4470    53.8300    81.6940 N.am         1 NAD1001   0.0000
    42 C4N         17.9420    52.2660    79.3550 C.ar         1 NAD1001   0.0000
    43 C5N         18.4870    50.9840    79.0790 C.ar         1 NAD1001   0.0000
    44 C6N         18.1750    49.8170    79.7280 C.ar         1 NAD1001   0.0000
    45 H5B1        13.9620    47.6251    86.9191 H            1 NAD1001   0.0000
    46 H5B2        12.7254    48.6641    86.6782 H            1 NAD1001   0.0000
    47 H4B         11.8220    47.3212    88.2271 H            1 NAD1001   0.0000
    48 H3B         12.7497    49.6193    89.4905 H            1 NAD1001   0.0000
    49 H5          10.5480    47.9696    90.1183 H            1 NAD1001   0.0000
    50 H2B         14.0521    48.4875    90.9212 H            1 NAD1001   0.0000
    51 H7          11.5632    47.8611    92.1255 H            1 NAD1001   0.0000
    52 H1B         12.3413    46.1785    90.6150 H            1 NAD1001   0.0000
    53 H8A         16.0179    47.1123    90.8336 H            1 NAD1001   0.0000
    54 H6A1        16.6998    42.1062    94.3969 H            1 NAD1001   0.0000
    55 H6A2        17.5134    43.4587    93.6835 H            1 NAD1001   0.0000
    56 H2A         12.3723    42.4542    93.0790 H            1 NAD1001   0.0000
    57 H5D1        13.2447    48.8537    83.2157 H            1 NAD1001   0.0000
    58 H5D2        14.0578    48.4518    84.5736 H            1 NAD1001   0.0000
    59 H4D         14.6181    47.1090    82.6024 H            1 NAD1001   0.0000
    60 H3D         16.3145    47.7615    84.5036 H            1 NAD1001   0.0000
    61 H17         16.1863    45.6338    83.5846 H            1 NAD1001   0.0000
    62 H2D         17.1613    49.5811    83.3993 H            1 NAD1001   0.0000
    63 H19         18.9025    48.1914    84.0877 H            1 NAD1001   0.0000
    64 H1D         17.1621    47.9556    81.0218 H            1 NAD1001   0.0000
    65 H2N         15.9146    51.2082    81.8757 H            1 NAD1001   0.0000
    66 H7N1        15.0576    54.7300    81.8902 H            1 NAD1001   0.0000
    67 H7N2        15.1491    53.0315    82.2172 H            1 NAD1001   0.0000
    68 H4N         18.2141    53.0806    78.8427 H            1 NAD1001   0.0000
    69 H5N         19.1612    50.9270    78.3427 H            1 NAD1001   0.0000
    70 H6N         18.5872    48.9355    79.4978 H            1 NAD1001   0.0000
@<TRIPOS>BOND
     1    1    2      ar
     2    1    3      ar
     3    1    4       1
     4    1   23       1
     5    4    5       1
     6    5    6       1
     7    6    7       1
     8    6    8       1
     9    7   12       1
    10    8    9       1
    11    8   10       1
    12   10   11       1
    13   10   12       1
    14   12   13       1
    15   13   14       1
    16   13   22       1
    17   14   15       2
    18   15   16       1
    19   16   17      ar
    20   16   22      ar
    21   17   18       1
    22   17   19      ar
    23   19   20      ar
    24   20   21      ar
    25   21   22      ar
    26   23   24       1
    27   24   25      ar
    28   24   26      ar
    29   24   27       1
    30   27   28       1
    31   28   29       1
    32   29   30       1
    33   29   31       1
    34   30   35       1
    35   31   32       1
    36   31   33       1
    37   33   34       1
    38   33   35       1
    39   35   36       1
    40   36   37      ar
    41   36   44      ar
    42   37   38      ar
    43   38   39       1
    44   38   42      ar
    45   39   40       2
    46   39   41      am
    47   42   43      ar
    48   43   44      ar
    49   44   70       1
    50    5   45       1
    51    5   46       1
    52    6   47       1
    53    8   48       1
    54    9   49       1
    55   10   50       1
    56   11   51       1
    57   12   52       1
    58   14   53       1
    59   18   54       1
    60   18   55       1
    61   20   56       1
    62   43   69       1
    63   28   57       1
    64   28   58       1
    65   29   59       1
    66   31   60       1
    67   32   61       1
    68   33   62       1
    69   34   63       1
    70   35   64       1
    71   37   65       1
    72   41   66       1
    73   41   67       1
    74   42   68       1
@<TRIPOS>SUBSTRUCTURE
     1 NAD1001     1 GROUP             4 A     NAD     0 **** NAD A1001
