@<TRIPOS>MOLECULE
5kp2_COA_1_ligand
   80    82     1     0     0
SMALL
NO_CHARGES


@<TRIPOS>ATOM
     1 N1A        -10.9750    -0.3990     0.4190 N.ar         1 COA401   0.0000
     2 C2A        -12.0740    -1.1800     0.2780 C.ar         1 COA401   0.0000
     3 N3A        -12.1580    -2.4300     0.7920 N.ar         1 COA401   0.0000
     4 C4A        -11.1260    -2.9840     1.4860 C.ar         1 COA401   0.0000
     5 C5A         -9.9030    -2.1880     1.6780 C.ar         1 COA401   0.0000
     6 C6A         -9.8750    -0.8240     1.0940 C.ar         1 COA401   0.0000
     7 N6A         -8.7740    -0.0490     1.2390 N.pl3        1 COA401   0.0000
     8 N7A         -9.0540    -2.9460     2.3880 N.2          1 COA401   0.0000
     9 C8A         -9.6710    -4.1280     2.6420 C.2          1 COA401   0.0000
    10 N9A        -10.9130    -4.1550     2.1000 N.pl3        1 COA401   0.0000
    11 C1B        -11.9170    -5.2620     2.1490 C.3          1 COA401   0.0000
    12 C2B        -11.3170    -6.6710     2.1330 C.3          1 COA401   0.0000
    13 O2B        -11.3900    -7.2430     0.8210 O.3          1 COA401   0.0000
    14 C3B        -12.1080    -7.4630     3.1650 C.3          1 COA401   0.0000
    15 O3B        -12.9280    -8.4610     2.5620 O.3          1 COA401   0.0000
    16 P3B        -12.4100    -9.9840     2.5170 P.3          1 COA401   0.0000
    17 O7A        -13.3840   -10.6710     1.5890 O.co2        1 COA401   0.0000
    18 O8A        -12.4890   -10.4220     3.9600 O.co2        1 COA401  -1.0000
    19 O9A        -11.0050    -9.8650     1.9780 O.co2        1 COA401  -1.0000
    20 C4B        -12.9560    -6.4460     3.9260 C.3          1 COA401   0.0000
    21 O4B        -12.7230    -5.1650     3.3300 O.3          1 COA401   0.0000
    22 C5B        -12.6200    -6.3890     5.4140 C.3          1 COA401   0.0000
    23 O5B        -11.2110    -6.2100     5.5770 O.3          1 COA401   0.0000
    24 P1A        -10.4690    -6.3800     6.9960 P.3          1 COA401   0.0000
    25 O1A         -9.0240    -6.7340     6.7220 O.co2        1 COA401   0.0000
    26 O2A        -11.3080    -7.2680     7.8890 O.co2        1 COA401  -1.0000
    27 O3A        -10.5160    -4.8670     7.5500 O.3          1 COA401   0.0000
    28 P2A         -9.7240    -4.4340     8.8830 P.3          1 COA401   0.0000
    29 O4A        -10.1720    -3.0400     9.2600 O.co2        1 COA401   0.0000
    30 O5A         -8.2510    -4.7110     8.6930 O.co2        1 COA401  -1.0000
    31 O6A        -10.2830    -5.4780     9.9740 O.3          1 COA401   0.0000
    32 CBP        -10.6610    -6.2180    12.3040 C.3          1 COA401   0.0000
    33 CCP        -10.2200    -5.1090    11.3450 C.3          1 COA401   0.0000
    34 CDP        -11.1210    -5.4800    13.5350 C.3          1 COA401   0.0000
    35 CEP        -11.8440    -7.0150    11.7570 C.3          1 COA401   0.0000
    36 CAP         -9.5230    -7.1480    12.7780 C.3          1 COA401   0.0000
    37 OAP        -10.0410    -8.3790    13.3110 O.3          1 COA401   0.0000
    38 C9P         -8.5230    -7.4800    11.7030 C.2          1 COA401   0.0000
    39 O9P         -8.7200    -8.4160    10.9430 O.2          1 COA401   0.0000
    40 N8P         -7.4410    -6.7000    11.6660 N.am         1 COA401   0.0000
    41 C7P         -6.3590    -6.9180    10.7270 C.3          1 COA401   0.0000
    42 C6P         -5.0580    -6.1750    11.0420 C.3          1 COA401   0.0000
    43 C5P         -4.7110    -6.0910    12.5200 C.2          1 COA401   0.0000
    44 O5P         -5.4180    -6.6650    13.3340 O.2          1 COA401   0.0000
    45 N4P         -3.6330    -5.3950    12.9170 N.am         1 COA401   0.0000
    46 C3P         -2.7030    -4.6990    12.0310 C.3          1 COA401   0.0000
    47 C2P         -1.7380    -3.7750    12.7740 C.3          1 COA401   0.0000
    48 S1P         -0.0910    -3.7900    12.0180 S.3          1 COA401   0.0000
    49 H2A        -12.8568    -0.8172    -0.2276 H            1 COA401   0.0000
    50 H6A1        -7.9821    -0.3946     1.7424 H            1 COA401   0.0000
    51 H6A2        -8.7529     0.8688     0.8426 H            1 COA401   0.0000
    52 H8A         -9.2631    -4.8796     3.1605 H            1 COA401   0.0000
    53 H1B        -12.5179    -5.1715     1.3548 H            1 COA401   0.0000
    54 H2B        -10.3597    -6.6238     2.4181 H            1 COA401   0.0000
    55 H7         -11.4716    -8.2369     0.8948 H            1 COA401   0.0000
    56 H3B        -11.4720    -7.9009     3.8004 H            1 COA401   0.0000
    57 H4B        -13.9216    -6.6833     3.8196 H            1 COA401   0.0000
    58 H5B1       -12.9006    -7.2430     5.8522 H            1 COA401   0.0000
    59 H5B2       -13.1045    -5.6229     5.8362 H            1 COA401   0.0000
    60 HCP1       -10.8130    -4.3162    11.4857 H            1 COA401   0.0000
    61 HCP2        -9.2757    -4.8616    11.5619 H            1 COA401   0.0000
    62 HDP1       -11.4302    -6.1377    14.2219 H            1 COA401   0.0000
    63 HDP2       -10.3625    -4.9434    13.9049 H            1 COA401   0.0000
    64 HDP3       -11.8755    -4.8692    13.2950 H            1 COA401   0.0000
    65 HEP1       -12.0984    -7.7261    12.4124 H            1 COA401   0.0000
    66 HEP2       -12.6206    -6.4019    11.6122 H            1 COA401   0.0000
    67 HEP3       -11.5873    -7.4387    10.8883 H            1 COA401   0.0000
    68 HAP         -9.0341    -6.6797    13.5140 H            1 COA401   0.0000
    69 H21         -9.2825    -8.9587    13.6087 H            1 COA401   0.0000
    70 H8P         -7.3744    -5.9375    12.3095 H            1 COA401   0.0000
    71 H7P1        -6.6708    -6.6249     9.8232 H            1 COA401   0.0000
    72 H7P2        -6.1585    -7.8975    10.7090 H            1 COA401   0.0000
    73 H6P1        -5.1389    -5.2431    10.6884 H            1 COA401   0.0000
    74 H6P2        -4.3102    -6.6455    10.5735 H            1 COA401   0.0000
    75 H4P         -3.4522    -5.3495    13.8995 H            1 COA401   0.0000
    76 H3P1        -3.2318    -4.1510    11.3829 H            1 COA401   0.0000
    77 H3P2        -2.1686    -5.3814    11.5323 H            1 COA401   0.0000
    78 H2P1        -1.6626    -4.0794    13.7236 H            1 COA401   0.0000
    79 H2P2        -2.0980    -2.8423    12.7505 H            1 COA401   0.0000
    80 H1P          0.5145    -3.1774    12.5260 H            1 COA401   0.0000
@<TRIPOS>BOND
     1    1    2      ar
     2    1    6      ar
     3    2    3      ar
     4    3    4      ar
     5    4    5      ar
     6    4   10       1
     7    5    6      ar
     8    5    8       1
     9    6    7       1
    10    8    9       2
    11    9   10       1
    12   10   11       1
    13   11   12       1
    14   11   21       1
    15   12   13       1
    16   12   14       1
    17   14   15       1
    18   14   20       1
    19   15   16       1
    20   16   17      ar
    21   16   18      ar
    22   16   19      ar
    23   20   21       1
    24   20   22       1
    25   22   23       1
    26   23   24       1
    27   24   25      ar
    28   24   26      ar
    29   24   27       1
    30   27   28       1
    31   28   29      ar
    32   28   30      ar
    33   28   31       1
    34   31   33       1
    35   32   33       1
    36   32   34       1
    37   32   35       1
    38   32   36       1
    39   36   37       1
    40   36   38       1
    41   38   39       2
    42   38   40      am
    43   40   41       1
    44   41   42       1
    45   42   43       1
    46   43   44       2
    47   43   45      am
    48   45   46       1
    49   46   47       1
    50   47   48       1
    51    2   49       1
    52    7   50       1
    53    7   51       1
    54    9   52       1
    55   11   53       1
    56   12   54       1
    57   13   55       1
    58   14   56       1
    59   48   80       1
    60   47   79       1
    61   20   57       1
    62   22   58       1
    63   22   59       1
    64   47   78       1
    65   46   77       1
    66   33   60       1
    67   33   61       1
    68   34   62       1
    69   34   63       1
    70   34   64       1
    71   35   65       1
    72   35   66       1
    73   35   67       1
    74   36   68       1
    75   37   69       1
    76   40   70       1
    77   41   71       1
    78   41   72       1
    79   42   73       1
    80   42   74       1
    81   45   75       1
    82   46   76       1
@<TRIPOS>SUBSTRUCTURE
     1 COA401      1 GROUP             4 B     COA     0 **** COA B 401
