@<TRIPOS>MOLECULE
4g2w_NI0_1_ligand
   64    66     1     0     0
SMALL
NO_CHARGES


@<TRIPOS>ATOM
     1 CAQ         25.2740   -20.4470    22.7100 C.3          1 NI0901   0.0000
     2 CAO         23.9730   -21.1600    22.4980 C.3          1 NI0901   0.0000
     3 NBC         23.9090   -21.8460    21.2370 N.4          1 NI0901   1.0000
     4 CAD         23.4160   -23.2150    21.2580 C.3          1 NI0901   0.0000
     5 CAP         25.0440   -21.5520    20.4150 C.3          1 NI0901   0.0000
     6 CAR         26.3350   -21.8740    21.1040 C.3          1 NI0901   0.0000
     7 NBD         26.4370   -21.2250    22.3790 N.3          1 NI0901   0.0000
     8 SBE         27.9190   -20.6760    22.7910 S.o2         1 NI0901   0.0000
     9 OAF         28.0710   -20.5790    24.2570 O.2          1 NI0901   0.0000
    10 OAG         28.9180   -21.5980    22.2020 O.2          1 NI0901   0.0000
    11 CAV         28.0580   -19.0290    22.1340 C.ar         1 NI0901   0.0000
    12 CAJ         28.3690   -18.8750    20.7700 C.ar         1 NI0901   0.0000
    13 CAH         27.8430   -17.9220    22.9580 C.ar         1 NI0901   0.0000
    14 CAI         27.9490   -16.6220    22.4100 C.ar         1 NI0901   0.0000
    15 CAX         28.2580   -16.4580    21.0430 C.ar         1 NI0901   0.0000
    16 OAU         28.3800   -15.1760    20.4820 O.3          1 NI0901   0.0000
    17 CAN         27.5360   -14.1100    20.8610 C.3          1 NI0901   0.0000
    18 CAK         27.8670   -12.7420    20.2900 C.3          1 NI0901   0.0000
    19 CAA         29.0630   -12.6440    19.3190 C.3          1 NI0901   0.0000
    20 CAY         28.4620   -17.5930    20.2330 C.ar         1 NI0901   0.0000
    21 CAZ         28.8330   -17.4900    18.7560 C.2          1 NI0901   0.0000
    22 NAS         28.1900   -18.2760    17.8700 N.2          1 NI0901   0.0000
    23 NAT         29.8250   -16.6580    18.3710 N.pl3        1 NI0901   0.0000
    24 CBB         30.1790   -16.5700    17.0490 C.2          1 NI0901   0.0000
    25 OAE         31.1870   -15.6950    16.6870 O.2          1 NI0901   0.0000
    26 CBA         29.5130   -17.3700    16.0870 C.2          1 NI0901   0.0000
    27 CAM         29.9060   -17.2930    14.5960 C.3          1 NI0901   0.0000
    28 CAC         31.0950   -18.1150    14.1860 C.3          1 NI0901   0.0000
    29 CAW         28.4900   -18.2530    16.5540 C.2          1 NI0901   0.0000
    30 CAL         27.6830   -19.1590    15.6430 C.3          1 NI0901   0.0000
    31 CAB         26.3560   -18.5030    15.2810 C.3          1 NI0901   0.0000
    32 HAQ1        25.3351   -20.1872    23.6737 H            1 NI0901   0.0000
    33 HAQ2        25.2760   -19.6239    22.1421 H            1 NI0901   0.0000
    34 HAO1        23.2322   -20.4892    22.5341 H            1 NI0901   0.0000
    35 HAO2        23.8528   -21.8291    23.2314 H            1 NI0901   0.0000
    36 HAD1        23.4177   -23.5842    20.3286 H            1 NI0901   0.0000
    37 HAD2        24.0076   -23.7734    21.8396 H            1 NI0901   0.0000
    38 HAD3        22.4840   -23.2281    21.6202 H            1 NI0901   0.0000
    39 HAP1        25.0339   -20.5784    20.1870 H            1 NI0901   0.0000
    40 HAP2        24.9829   -22.0917    19.5753 H            1 NI0901   0.0000
    41 HAR1        27.0937   -21.5729    20.5263 H            1 NI0901   0.0000
    42 HAR2        26.3913   -22.8632    21.2393 H            1 NI0901   0.0000
    43 HAJ         28.5215   -19.6771    20.1927 H            1 NI0901   0.0000
    44 HAH         27.6168   -18.0468    23.9240 H            1 NI0901   0.0000
    45 HAI         27.8052   -15.8206    22.9905 H            1 NI0901   0.0000
    46 HAN1        27.5677   -14.0380    21.8579 H            1 NI0901   0.0000
    47 HAN2        26.6069   -14.3419    20.5729 H            1 NI0901   0.0000
    48 HAK1        28.0567   -12.1338    21.0608 H            1 NI0901   0.0000
    49 HAK2        27.0572   -12.4178    19.8011 H            1 NI0901   0.0000
    50 HAA1        29.1720   -11.6963    19.0189 H            1 NI0901   0.0000
    51 HAA2        29.8957   -12.9441    19.7844 H            1 NI0901   0.0000
    52 HAA3        28.8962   -13.2281    18.5246 H            1 NI0901   0.0000
    53 HAM1        30.1059   -16.3371    14.3811 H            1 NI0901   0.0000
    54 HAM2        29.1216   -17.5989    14.0565 H            1 NI0901   0.0000
    55 HAC1        31.2625   -17.9940    13.2076 H            1 NI0901   0.0000
    56 HAC2        31.8991   -17.8181    14.7011 H            1 NI0901   0.0000
    57 HAC3        30.9148   -19.0800    14.3765 H            1 NI0901   0.0000
    58 HAL1        27.5057   -20.0243    16.1119 H            1 NI0901   0.0000
    59 HAL2        28.2032   -19.3334    14.8070 H            1 NI0901   0.0000
    60 HAB1        25.8362   -19.1112    14.6811 H            1 NI0901   0.0000
    61 HAB2        25.8318   -18.3291    16.1146 H            1 NI0901   0.0000
    62 HAB3        26.5293   -17.6382    14.8097 H            1 NI0901   0.0000
    63 HBC         23.1723   -21.3604    20.7663 H            1 NI0901   0.0000
    64 HAT         30.3031   -16.1041    19.0526 H            1 NI0901   0.0000
@<TRIPOS>BOND
     1    1    2       1
     2    1    7       1
     3    2    3       1
     4    3    4       1
     5    3    5       1
     6    5    6       1
     7    6    7       1
     8    7    8       1
     9    8    9       2
    10    8   10       2
    11    8   11       1
    12   11   12      ar
    13   11   13      ar
    14   12   20      ar
    15   13   14      ar
    16   14   15      ar
    17   15   16       1
    18   15   20      ar
    19   16   17       1
    20   17   18       1
    21   18   19       1
    22   20   21       1
    23   21   22       2
    24   21   23       1
    25   22   29       1
    26   23   24       1
    27   24   25       2
    28   24   26       1
    29   26   27       1
    30   26   29       2
    31   27   28       1
    32   29   30       1
    33   30   31       1
    34    1   32       1
    35    1   33       1
    36    2   34       1
    37    2   35       1
    38    4   36       1
    39    4   37       1
    40    4   38       1
    41    5   39       1
    42    5   40       1
    43    6   41       1
    44    6   42       1
    45   12   43       1
    46   13   44       1
    47   14   45       1
    48   17   46       1
    49   17   47       1
    50   18   48       1
    51   18   49       1
    52   19   50       1
    53   19   51       1
    54   19   52       1
    55    3   63       1
    56   27   53       1
    57   27   54       1
    58   28   55       1
    59   28   56       1
    60   28   57       1
    61   30   58       1
    62   30   59       1
    63   31   60       1
    64   31   61       1
    65   31   62       1
    66   23   64       1
@<TRIPOS>SUBSTRUCTURE
     1 NI0901      1 GROUP             4 A     NI0     0 **** NI0 A 901
