@<TRIPOS>MOLECULE
1wwk_NAD_2_ligand
   70    74     1     0     0
SMALL
NO_CHARGES


@<TRIPOS>ATOM
     1 PA          96.8790    -5.4610    30.9930 P.3          1 NAD2001   0.0000
     2 O1A         98.0690    -6.1090    31.5880 O.co2        1 NAD2001   0.0000
     3 O2A         95.5540    -6.0800    31.2200 O.co2        1 NAD2001  -1.0000
     4 O5B         97.1190    -5.2910    29.4120 O.3          1 NAD2001   0.0000
     5 C5B         98.3100    -4.6540    28.9430 C.3          1 NAD2001   0.0000
     6 C4B         98.5310    -4.9410    27.4570 C.3          1 NAD2001   0.0000
     7 O4B         99.6880    -4.2010    27.0340 O.3          1 NAD2001   0.0000
     8 C3B         98.8450    -6.4230    27.2210 C.3          1 NAD2001   0.0000
     9 O3B         98.0820    -6.9210    26.1180 O.3          1 NAD2001   0.0000
    10 C2B        100.3360    -6.3980    26.8840 C.3          1 NAD2001   0.0000
    11 O2B        100.6490    -7.4600    25.9780 O.3          1 NAD2001   0.0000
    12 C1B        100.3990    -5.0660    26.1380 C.3          1 NAD2001   0.0000
    13 N9A        101.7780    -4.5560    25.9530 N.pl3        1 NAD2001   0.0000
    14 C8A        102.8340    -4.8040    26.7250 C.2          1 NAD2001   0.0000
    15 N7A        103.8980    -4.1550    26.2590 N.2          1 NAD2001   0.0000
    16 C5A        103.5180    -3.4880    25.1730 C.ar         1 NAD2001   0.0000
    17 C6A        104.1620    -2.6540    24.2670 C.ar         1 NAD2001   0.0000
    18 N6A        105.4610    -2.3990    24.3940 N.pl3        1 NAD2001   0.0000
    19 N1A        103.4620    -2.1260    23.2520 N.ar         1 NAD2001   0.0000
    20 C2A        102.1740    -2.3870    23.0960 C.ar         1 NAD2001   0.0000
    21 N3A        101.5320    -3.1770    23.9390 N.ar         1 NAD2001   0.0000
    22 C4A        102.1670    -3.7400    24.9780 C.ar         1 NAD2001   0.0000
    23 O3          96.8670    -3.9460    31.5370 O.3          1 NAD2001   0.0000
    24 PN          95.4960    -3.1340    31.7670 P.3          1 NAD2001   0.0000
    25 O1N         94.8090    -3.6390    32.9770 O.co2        1 NAD2001   0.0000
    26 O2N         94.7420    -3.0930    30.4950 O.co2        1 NAD2001  -1.0000
    27 O5D         96.0340    -1.6550    32.1080 O.3          1 NAD2001   0.0000
    28 C5D         96.5520    -0.8380    31.0540 C.3          1 NAD2001   0.0000
    29 C4D         97.1080     0.4860    31.5810 C.3          1 NAD2001   0.0000
    30 O4D         96.0460     1.1620    32.2800 O.3          1 NAD2001   0.0000
    31 C3D         98.2320     0.2720    32.5990 C.3          1 NAD2001   0.0000
    32 O3D         99.2470     1.2680    32.4510 O.3          1 NAD2001   0.0000
    33 C2D         97.5040     0.4620    33.9280 C.3          1 NAD2001   0.0000
    34 O2D         98.4000     0.8840    34.9600 O.3          1 NAD2001   0.0000
    35 C1D         96.5980     1.6240    33.5230 C.3          1 NAD2001   0.0000
    36 N1N         95.5280     1.9760    34.4840 N.ar         1 NAD2001   1.0000
    37 C2N         95.1070     3.3100    34.5750 C.ar         1 NAD2001   0.0000
    38 C3N         94.0890     3.6540    35.4580 C.ar         1 NAD2001   0.0000
    39 C7N         93.6180     5.1070    35.5630 C.2          1 NAD2001   0.0000
    40 O7N         92.9920     5.5030    36.5450 O.2          1 NAD2001   0.0000
    41 N7N         93.9580     5.8830    34.5380 N.am         1 NAD2001   0.0000
    42 C4N         93.4990     2.6720    36.2470 C.ar         1 NAD2001   0.0000
    43 C5N         93.9090     1.3450    36.1620 C.ar         1 NAD2001   0.0000
    44 C6N         94.9250     0.9920    35.2800 C.ar         1 NAD2001   0.0000
    45 H5B1        99.0920    -4.9976    29.4630 H            1 NAD2001   0.0000
    46 H5B2        98.2282    -3.6665    29.0775 H            1 NAD2001   0.0000
    47 H4B         97.7291    -4.6664    26.9265 H            1 NAD2001   0.0000
    48 H3B         98.6737    -6.9609    28.0464 H            1 NAD2001   0.0000
    49 H5          98.3105    -6.4030    25.2937 H            1 NAD2001   0.0000
    50 H2B        100.9136    -6.4078    27.7002 H            1 NAD2001   0.0000
    51 H7         100.1192    -7.3480    25.1373 H            1 NAD2001   0.0000
    52 H1B         99.9256    -5.1306    25.2595 H            1 NAD2001   0.0000
    53 H8A        102.8283    -5.3908    27.5347 H            1 NAD2001   0.0000
    54 H6A1       105.9190    -1.7980    23.7389 H            1 NAD2001   0.0000
    55 H6A2       105.9798    -2.8082    25.1446 H            1 NAD2001   0.0000
    56 H2A        101.6788    -1.9802    22.3284 H            1 NAD2001   0.0000
    57 H5D1        95.8173    -0.6444    30.4039 H            1 NAD2001   0.0000
    58 H5D2        97.2853    -1.3350    30.5900 H            1 NAD2001   0.0000
    59 H4D         97.4337     1.0493    30.8217 H            1 NAD2001   0.0000
    60 H3D         98.6156    -0.6486    32.5255 H            1 NAD2001   0.0000
    61 H17         99.6324     1.2169    31.5297 H            1 NAD2001   0.0000
    62 H2D         96.9817    -0.3492    34.1909 H            1 NAD2001   0.0000
    63 H19         98.3977     0.2107    35.6993 H            1 NAD2001   0.0000
    64 H1D         97.1608     2.4323    33.3502 H            1 NAD2001   0.0000
    65 H2N         95.5371     4.0118    34.0071 H            1 NAD2001   0.0000
    66 H7N1        93.6888     6.8460    34.5291 H            1 NAD2001   0.0000
    67 H7N2        94.4829     5.5035    33.7761 H            1 NAD2001   0.0000
    68 H4N         92.7702     2.9231    36.8840 H            1 NAD2001   0.0000
    69 H5N         93.4750     0.6479    36.7327 H            1 NAD2001   0.0000
    70 H6N         95.2241     0.0401    35.2139 H            1 NAD2001   0.0000
@<TRIPOS>BOND
     1    1    2      ar
     2    1    3      ar
     3    1    4       1
     4    1   23       1
     5    4    5       1
     6    5    6       1
     7    6    7       1
     8    6    8       1
     9    7   12       1
    10    8    9       1
    11    8   10       1
    12   10   11       1
    13   10   12       1
    14   12   13       1
    15   13   14       1
    16   13   22       1
    17   14   15       2
    18   15   16       1
    19   16   17      ar
    20   16   22      ar
    21   17   18       1
    22   17   19      ar
    23   19   20      ar
    24   20   21      ar
    25   21   22      ar
    26   23   24       1
    27   24   25      ar
    28   24   26      ar
    29   24   27       1
    30   27   28       1
    31   28   29       1
    32   29   30       1
    33   29   31       1
    34   30   35       1
    35   31   32       1
    36   31   33       1
    37   33   34       1
    38   33   35       1
    39   35   36       1
    40   36   37      ar
    41   36   44      ar
    42   37   38      ar
    43   38   39       1
    44   38   42      ar
    45   39   40       2
    46   39   41      am
    47   42   43      ar
    48   43   44      ar
    49   44   70       1
    50    5   45       1
    51    5   46       1
    52    6   47       1
    53    8   48       1
    54    9   49       1
    55   10   50       1
    56   11   51       1
    57   12   52       1
    58   14   53       1
    59   18   54       1
    60   18   55       1
    61   20   56       1
    62   43   69       1
    63   28   57       1
    64   28   58       1
    65   29   59       1
    66   31   60       1
    67   32   61       1
    68   33   62       1
    69   34   63       1
    70   35   64       1
    71   37   65       1
    72   41   66       1
    73   41   67       1
    74   42   68       1
@<TRIPOS>SUBSTRUCTURE
     1 NAD2001     1 GROUP             4 B     NAD     0 **** NAD B2001
