@<TRIPOS>MOLECULE
3shr_CMP_1_ligand
   34    37     1     0     0
SMALL
NO_CHARGES


@<TRIPOS>ATOM
     1 P          -50.6500    -4.9150   -36.3940 P.3          1 CMP401   0.0000
     2 O1P        -50.1430    -4.6000   -35.0460 O.2          1 CMP401   0.0000
     3 O2P        -51.3030    -6.2230   -36.6520 O.3          1 CMP401   0.0000
     4 O5'        -49.4800    -4.7650   -37.4770 O.3          1 CMP401   0.0000
     5 C5'        -49.7680    -4.3620   -38.8240 C.3          1 CMP401   0.0000
     6 C4'        -50.6850    -3.1780   -38.7790 C.3          1 CMP401   0.0000
     7 O4'        -51.1190    -2.6870   -40.0650 O.3          1 CMP401   0.0000
     8 C3'        -51.9950    -3.5400   -38.1390 C.3          1 CMP401   0.0000
     9 O3'        -51.6840    -3.7470   -36.7740 O.3          1 CMP401   0.0000
    10 C2'        -52.8510    -2.3250   -38.4750 C.3          1 CMP401   0.0000
    11 O2'        -52.6200    -1.2660   -37.5740 O.3          1 CMP401   0.0000
    12 C1'        -52.2990    -1.9370   -39.8530 C.3          1 CMP401   0.0000
    13 N9         -53.1940    -2.0900   -40.9980 N.pl3        1 CMP401   0.0000
    14 C8         -53.6540    -1.0770   -41.8130 C.2          1 CMP401   0.0000
    15 N7         -54.4560    -1.4830   -42.7650 N.2          1 CMP401   0.0000
    16 C5         -54.5270    -2.8550   -42.5710 C.ar         1 CMP401   0.0000
    17 C6         -55.2120    -3.8700   -43.2620 C.ar         1 CMP401   0.0000
    18 N6         -55.9910    -3.6450   -44.3250 N.pl3        1 CMP401   0.0000
    19 N1         -55.0670    -5.1400   -42.8150 N.ar         1 CMP401   0.0000
    20 C2         -54.2840    -5.3600   -41.7430 C.ar         1 CMP401   0.0000
    21 N3         -53.5900    -4.4870   -41.0120 N.ar         1 CMP401   0.0000
    22 C4         -53.7560    -3.2410   -41.4840 C.ar         1 CMP401   0.0000
    23 H5'1       -50.2105    -5.1132   -39.3137 H            1 CMP401   0.0000
    24 H5'2       -48.9192    -4.1139   -39.2909 H            1 CMP401   0.0000
    25 H4'        -50.2528    -2.4373   -38.2647 H            1 CMP401   0.0000
    26 H3'        -52.3755    -4.3692   -38.5484 H            1 CMP401   0.0000
    27 H2'        -53.8215    -2.5616   -38.5219 H            1 CMP401   0.0000
    28 H6         -53.2496    -1.3428   -36.8009 H            1 CMP401   0.0000
    29 H1'        -52.0354    -0.9734   -39.8077 H            1 CMP401   0.0000
    30 H8         -53.3980    -0.1184   -41.6881 H            1 CMP401   0.0000
    31 H9         -56.4537    -4.4080   -44.7763 H            1 CMP401   0.0000
    32 H10        -56.1109    -2.7137   -44.6688 H            1 CMP401   0.0000
    33 H11        -54.2123    -6.3144   -41.4532 H            1 CMP401   0.0000
    34 H2P        -51.7501    -6.5429   -35.8167 H            1 CMP401   0.0000
@<TRIPOS>BOND
     1    1    2       2
     2    1    3       1
     3    1    4       1
     4    1    9       1
     5    4    5       1
     6    5    6       1
     7    6    7       1
     8    6    8       1
     9    7   12       1
    10    8    9       1
    11    8   10       1
    12   10   11       1
    13   10   12       1
    14   12   13       1
    15   13   14       1
    16   13   22       1
    17   14   15       2
    18   15   16       1
    19   16   17      ar
    20   16   22      ar
    21   17   18       1
    22   17   19      ar
    23   19   20      ar
    24   20   21      ar
    25   21   22      ar
    26   20   33       1
    27    5   23       1
    28    5   24       1
    29    6   25       1
    30    8   26       1
    31   10   27       1
    32   11   28       1
    33   12   29       1
    34   14   30       1
    35   18   31       1
    36   18   32       1
    37    3   34       1
@<TRIPOS>SUBSTRUCTURE
     1 CMP401      1 GROUP             4 A     CMP     0 **** CMP A 401
