@<TRIPOS>MOLECULE
2ou5_FMN_1_ligand
   52    54     1     0     0
SMALL
NO_CHARGES


@<TRIPOS>ATOM
     1 N1          32.9530    41.5030    80.7570 N.pl3        1 FMN300   0.0000
     2 C2          33.1280    42.8670    80.7610 C.2          1 FMN300   0.0000
     3 O2          34.1550    43.3890    81.2460 O.2          1 FMN300   0.0000
     4 N3          32.1320    43.6530    80.2410 N.pl3        1 FMN300   0.0000
     5 C4          30.9740    43.0960    79.7130 C.2          1 FMN300   0.0000
     6 O4          30.3710    43.7770    78.9010 O.2          1 FMN300   0.0000
     7 C4A         30.8010    41.7000    79.7060 C.2          1 FMN300   0.0000
     8 N5          29.6660    41.0950    79.1860 N.2          1 FMN300   0.0000
     9 C5A         29.5630    39.7120    79.1680 C.2          1 FMN300   0.0000
    10 C6          28.4430    39.1070    78.6390 C.2          1 FMN300   0.0000
    11 C7          28.3070    37.7210    78.6120 C.2          1 FMN300   0.0000
    12 C7M         27.1140    37.1200    77.9030 C.3          1 FMN300   0.0000
    13 C8          29.3330    36.9030    79.0920 C.3          1 FMN300   0.0000
    14 C8M         29.5220    35.5680    78.4140 C.3          1 FMN300   0.0000
    15 C9          30.4710    37.5120    79.6340 C.2          1 FMN300   0.0000
    16 C9A         30.5820    38.9050    79.6780 C.2          1 FMN300   0.0000
    17 N10         31.6980    39.5230    80.2290 N.pl3        1 FMN300   0.0000
    18 C10         31.8200    40.9040    80.2160 C.2          1 FMN300   0.0000
    19 C1'         32.6990    38.7630    81.0700 C.3          1 FMN300   0.0000
    20 C2'         34.0030    38.7060    80.2480 C.3          1 FMN300   0.0000
    21 O2'         33.7280    37.9000    79.1410 O.3          1 FMN300   0.0000
    22 C3'         35.2480    38.2220    81.0340 C.3          1 FMN300   0.0000
    23 O3'         35.0060    37.0150    81.7930 O.3          1 FMN300   0.0000
    24 C4'         35.7410    39.3360    81.9550 C.3          1 FMN300   0.0000
    25 O4'         35.4090    40.6290    81.4750 O.3          1 FMN300   0.0000
    26 C5'         37.2500    39.2070    82.0750 C.3          1 FMN300   0.0000
    27 O5'         37.9560    39.3710    80.8240 O.3          1 FMN300   0.0000
    28 P           39.4990    39.5990    81.0550 P.3          1 FMN300   0.0000
    29 O1P         39.5710    41.0330    81.4850 O.co2        1 FMN300   0.0000
    30 O2P         39.8210    38.5570    82.0820 O.co2        1 FMN300  -1.0000
    31 O3P         40.2800    39.4270    79.8310 O.co2        1 FMN300  -1.0000
    32 H1          33.6632    40.9229    81.1559 H            1 FMN300   0.0000
    33 H2          32.2414    44.6470    80.2419 H            1 FMN300   0.0000
    34 H3          27.7108    39.6767    78.2658 H            1 FMN300   0.0000
    35 H7M1        27.1546    36.1230    77.9687 H            1 FMN300   0.0000
    36 H7M2        26.2718    37.4482    78.3308 H            1 FMN300   0.0000
    37 H7M3        27.1267    37.3914    76.9406 H            1 FMN300   0.0000
    38 H7          28.9027    36.5905    79.9389 H            1 FMN300   0.0000
    39 H8M1        30.2810    35.0798    78.8448 H            1 FMN300   0.0000
    40 H8M2        28.6852    35.0278    78.5025 H            1 FMN300   0.0000
    41 H8M3        29.7251    35.7118    77.4455 H            1 FMN300   0.0000
    42 H11         31.2121    36.9449    79.9934 H            1 FMN300   0.0000
    43 H1'1        32.3652    37.8385    81.2539 H            1 FMN300   0.0000
    44 H1'2        32.8560    39.2390    81.9353 H            1 FMN300   0.0000
    45 H2'         34.1933    39.6290    79.9135 H            1 FMN300   0.0000
    46 H15         33.3893    38.4681    78.3909 H            1 FMN300   0.0000
    47 H3'         35.9722    38.0281    80.3722 H            1 FMN300   0.0000
    48 H17         34.3118    36.4638    81.3302 H            1 FMN300   0.0000
    49 H4'         35.3329    39.2122    82.8595 H            1 FMN300   0.0000
    50 H19         35.2895    41.2512    82.2487 H            1 FMN300   0.0000
    51 H5'1        37.4600    38.2991    82.4378 H            1 FMN300   0.0000
    52 H5'2        37.5754    39.9046    82.7134 H            1 FMN300   0.0000
@<TRIPOS>BOND
     1    1    2       1
     2    1   18       1
     3    2    3       2
     4    2    4       1
     5    4    5       1
     6    5    6       2
     7    5    7       1
     8    7    8       1
     9    7   18       2
    10    8    9       2
    11    9   10       1
    12    9   16       1
    13   10   11       2
    14   11   12       1
    15   11   13       1
    16   13   14       1
    17   13   15       1
    18   15   16       2
    19   16   17       1
    20   17   18       1
    21   17   19       1
    22   19   20       1
    23   20   21       1
    24   20   22       1
    25   22   23       1
    26   22   24       1
    27   24   25       1
    28   24   26       1
    29   26   27       1
    30   27   28       1
    31   28   29      ar
    32   28   30      ar
    33   28   31      ar
    34    1   32       1
    35    4   33       1
    36   10   34       1
    37   12   35       1
    38   12   36       1
    39   12   37       1
    40   13   38       1
    41   14   39       1
    42   14   40       1
    43   14   41       1
    44   15   42       1
    45   19   43       1
    46   19   44       1
    47   20   45       1
    48   21   46       1
    49   22   47       1
    50   23   48       1
    51   24   49       1
    52   25   50       1
    53   26   51       1
    54   26   52       1
@<TRIPOS>SUBSTRUCTURE
     1 FMN300      1 GROUP             4 A     FMN     0 **** FMN A 300
