@<TRIPOS>MOLECULE
3wb2_YGP_2_ligand
   53    56     1     0     0
SMALL
NO_CHARGES


@<TRIPOS>ATOM
     1 C2          18.4640   -16.1720    17.2830 C.2          1 YGP202   0.0000
     2 N2          18.3130   -15.4600    18.3960 N.pl3        1 YGP202   0.0000
     3 C4          18.3880   -16.2550    14.9190 C.2          1 YGP202   0.0000
     4 C5          18.7520   -17.5850    14.9330 C.2          1 YGP202   0.0000
     5 C6          18.9900   -18.2600    16.1150 C.2          1 YGP202   0.0000
     6 O6          19.3050   -19.4730    16.1440 O.2          1 YGP202   0.0000
     7 N1          18.8500   -17.5470    17.3380 N.pl3        1 YGP202   0.0000
     8 N3          18.2530   -15.5680    16.0870 N.2          1 YGP202   0.0000
     9 N7          18.8260   -17.9920    13.6540 N.2          1 YGP202   0.0000
    10 C8          18.5010   -16.9450    12.8930 C.2          1 YGP202   0.0000
    11 N9          18.2370   -15.8480    13.6420 N.pl3        1 YGP202   0.0000
    12 C1'         17.8150   -14.4990    13.0460 C.3          1 YGP202   0.0000
    13 O4'         17.3510   -14.6280    11.6350 O.3          1 YGP202   0.0000
    14 C2'         18.9170   -13.4440    12.9320 C.3          1 YGP202   0.0000
    15 O2'         18.2970   -12.1310    12.7300 O.3          1 YGP202   0.0000
    16 C3'         19.6050   -13.8920    11.6240 C.3          1 YGP202   0.0000
    17 O3'         20.5920   -12.9360    11.1280 O.3          1 YGP202   0.0000
    18 C4'         18.3800   -14.0360    10.7040 C.3          1 YGP202   0.0000
    19 C5'         18.7310   -14.9340     9.4850 C.3          1 YGP202   0.0000
    20 O5'         19.3800   -16.1900     9.9060 O.3          1 YGP202   0.0000
    21 PBG         20.0270   -17.2320     8.7300 P.3          1 YGP202   0.0000
    22 OAI         20.4900   -18.6610     9.4480 O.co2        1 YGP202   0.0000
    23 OAF         21.1260   -16.6430     7.8960 O.co2        1 YGP202  -1.0000
    24 OAR         18.7400   -17.5840     7.7620 O.3          1 YGP202   0.0000
    25 CAW         17.4940   -18.0910     8.0700 C.2          1 YGP202   0.0000
    26 CAK         17.2340   -19.0650     9.0710 C.2          1 YGP202   0.0000
    27 CAT         15.9150   -19.5370     9.2600 C.2          1 YGP202   0.0000
    28 CAA         15.6030   -20.5160    10.2500 C.3          1 YGP202   0.0000
    29 NAO         14.8940   -19.0270     8.4280 N.pl3        1 YGP202   0.0000
    30 CAX         15.1400   -18.0550     7.4250 C.2          1 YGP202   0.0000
    31 OAD         14.1980   -17.6490     6.7150 O.2          1 YGP202   0.0000
    32 CAV         16.4720   -17.5810     7.2550 C.2          1 YGP202   0.0000
    33 CAB         16.8060   -16.6140     6.2780 C.3          1 YGP202   0.0000
    34 H1          18.0425   -14.4988    18.3418 H            1 YGP202   0.0000
    35 H2          18.4700   -15.8858    19.2871 H            1 YGP202   0.0000
    36 H3          18.4578   -16.9676    11.8942 H            1 YGP202   0.0000
    37 H1'         17.0685   -14.1248    13.5961 H            1 YGP202   0.0000
    38 H2'         19.5396   -13.4560    13.7145 H            1 YGP202   0.0000
    39 H6          19.0099   -11.4338    12.6542 H            1 YGP202   0.0000
    40 H3'         20.0355   -14.7848    11.7566 H            1 YGP202   0.0000
    41 H8          21.3096   -13.4249    10.6319 H            1 YGP202   0.0000
    42 H4'         18.0798   -13.1352    10.3903 H            1 YGP202   0.0000
    43 H5'1        19.3521   -14.4340     8.8815 H            1 YGP202   0.0000
    44 H5'2        17.8900   -15.1531     8.9902 H            1 YGP202   0.0000
    45 HAK         17.9795   -19.4146     9.6384 H            1 YGP202   0.0000
    46 HAA1        14.6233   -20.7149    10.2250 H            1 YGP202   0.0000
    47 HAA2        16.1179   -21.3531    10.0649 H            1 YGP202   0.0000
    48 HAA3        15.8492   -20.1662    11.1539 H            1 YGP202   0.0000
    49 HAO         13.9608   -19.3646     8.5510 H            1 YGP202   0.0000
    50 HAB1        15.9820   -16.3465     5.7785 H            1 YGP202   0.0000
    51 HAB2        17.2003   -15.8110     6.7249 H            1 YGP202   0.0000
    52 HAB3        17.4717   -17.0009     5.6400 H            1 YGP202   0.0000
    53 H20         19.0176   -17.9971    18.2151 H            1 YGP202   0.0000
@<TRIPOS>BOND
     1    1    2       1
     2    1    7       1
     3    1    8       2
     4    3    4       2
     5    3    8       1
     6    3   11       1
     7    4    5       1
     8    4    9       1
     9    5    6       2
    10    5    7       1
    11    9   10       2
    12   10   11       1
    13   11   12       1
    14   12   13       1
    15   12   14       1
    16   13   18       1
    17   14   15       1
    18   14   16       1
    19   16   17       1
    20   16   18       1
    21   18   19       1
    22   19   20       1
    23   20   21       1
    24   21   22      ar
    25   21   23      ar
    26   21   24       1
    27   24   25       1
    28   25   26       1
    29   25   32       2
    30   26   27       2
    31   27   28       1
    32   27   29       1
    33   29   30       1
    34   30   31       2
    35   30   32       1
    36   32   33       1
    37    2   34       1
    38    2   35       1
    39    7   53       1
    40   10   36       1
    41   12   37       1
    42   14   38       1
    43   15   39       1
    44   16   40       1
    45   17   41       1
    46   18   42       1
    47   19   43       1
    48   19   44       1
    49   33   52       1
    50   26   45       1
    51   28   46       1
    52   28   47       1
    53   28   48       1
    54   29   49       1
    55   33   50       1
    56   33   51       1
@<TRIPOS>SUBSTRUCTURE
     1 YGP202      1 GROUP             4 A     YGP     0 **** YGP A 202
