@<TRIPOS>MOLECULE
./coach420/1xpy/ligand.pdb
 13 11 0 0 0
SMALL
GASTEIGER

@<TRIPOS>ATOM
      1 MG         59.1320   28.9080   30.0510 Mg    3377  MG3377      0.0000
      2  C         60.5620   26.4610   31.4920 C.2   3376  NLQ3376     0.0000
      3  O         60.7170   26.8020   30.2940 O.2   3376  NLQ3376     0.0000
      4  CA        60.4350   24.9910   31.7860 C.3   3376  NLQ3376     0.0000
      5  N         59.5810   24.2280   30.8620 N.3   3376  NLQ3376     0.0000
      6  C6        58.4960   24.8240   30.1090 C.3   3376  NLQ3376     0.0000
      7  O4        57.5720   25.3580   31.0330 O.3   3376  NLQ3376     0.0000
      8  C7        57.8180   23.7890   29.2250 C.3   3376  NLQ3376     0.0000
      9  CB        61.8680   24.4680   31.7170 C.3   3376  NLQ3376     0.0000
     10  CG        62.5950   24.3860   33.0510 C.3   3376  NLQ3376     0.0000
     11  CD        62.7440   22.9070   33.3660 C.3   3376  NLQ3376     0.0000
     12  NE2       61.4620   22.3900   32.9440 N.3   3376  NLQ3376     0.0000
     13  OE1       63.7900   22.2880   32.6250 O.3   3376  NLQ3376     0.0000
@<TRIPOS>BOND
     1     2     3    2
     2     2     4    1
     3     4     5    1
     4     4     9    1
     5     5     6    1
     6     6     8    1
     7     6     7    1
     8     9    10    1
     9    10    11    1
    10    11    13    1
    11    11    12    1
