@<TRIPOS>MOLECULE
./coach420/1eyr/ligand.pdb
 25 26 0 0 0
SMALL
GASTEIGER

@<TRIPOS>ATOM
      1  O3B       14.3410  -12.4920   60.4310 O.2   1001  CDP1001    -0.2221
      2  PB        13.0820  -11.9470   59.7640 P.3   1001  CDP1001     0.5373
      3  O1B       13.4040  -11.4780   58.2900 O.3   1001  CDP1001    -0.1143
      4  O2B       11.9400  -12.9840   59.8890 O.3   1001  CDP1001    -0.1143
      5  O3A       12.7290  -10.7280   60.6390 O.3   1001  CDP1001    -0.2261
      6  PA        11.7740   -9.7480   59.9540 P.3   1001  CDP1001     0.2231
      7  O1A       12.5920   -8.7910   59.0160 O.2   1001  CDP1001    -0.5169
      8  O2A       10.6060  -10.5070   59.2860 O.3   1001  CDP1001    -0.4370
      9  O5'       11.1580   -8.9060   61.1580 O.3   1001  CDP1001    -0.3111
     10  C5'       11.6420   -7.6010   61.5330 C.3   1001  CDP1001     0.1813
     11  C4'       12.1240   -7.5550   62.9940 C.3   1001  CDP1001     0.1801
     12  O4'       11.0470   -7.8470   63.8210 O.3   1001  CDP1001    -0.3306
     13  C3'       13.2600   -8.4990   63.3160 C.3   1001  CDP1001     0.2161
     14  O3'       14.1330   -7.8870   64.2720 O.3   1001  CDP1001    -0.2175
     15  C2'       12.4940   -9.6920   63.9030 C.3   1001  CDP1001     0.2338
     16  O2'       13.2670  -10.4930   64.8130 O.3   1001  CDP1001    -0.2155
     17  C1'       11.3090   -9.0230   64.5890 C.3   1001  CDP1001     0.2421
     18  N1        10.1260   -9.8610   64.6750 N.ar  1001  CDP1001    -0.2535
     19  C2         9.8610  -10.6450   65.8400 C.ar  1001  CDP1001     0.3532
     20  O2        10.7210  -10.6490   66.8430 O.2   1001  CDP1001    -0.2443
     21  N3         8.7430  -11.3910   65.9520 N.ar  1001  CDP1001    -0.1739
     22  C4         7.7870  -11.4560   64.9600 C.ar  1001  CDP1001     0.1759
     23  N4         6.6750  -12.2050   65.1130 N.pl3 1001  CDP1001    -0.1070
     24  C5         8.0150  -10.7270   63.8310 C.ar  1001  CDP1001     0.0566
     25  C6         9.0780   -9.9610   63.6360 C.ar  1001  CDP1001     0.0850
@<TRIPOS>BOND
     1     1     2    2
     2     2     3    1
     3     2     4    1
     4     2     5    1
     5     5     6    1
     6     6     7    2
     7     6     8    1
     8     6     9    1
     9     9    10    1
    10    10    11    1
    11    11    13    1
    12    11    12    1
    13    12    17    1
    14    13    15    1
    15    13    14    1
    16    15    17    1
    17    15    16    1
    18    17    18    1
    19    18    25   ar
    20    18    19   ar
    21    19    21   ar
    22    19    20    2
    23    21    22   ar
    24    22    24   ar
    25    22    23    1
    26    24    25   ar
