@<TRIPOS>MOLECULE
2ido_TMP_2_ligand
   34    35     1     0     0
SMALL
NO_CHARGES


@<TRIPOS>ATOM
     1 P           15.8050    56.1330     7.1060 P.3          1 TMP2002   0.0000
     2 O1P         15.1930    55.0570     7.9830 O.co2        1 TMP2002   0.0000
     3 O2P         16.5380    55.5780     5.9070 O.co2        1 TMP2002  -1.0000
     4 O3P         14.7910    57.2090     6.7280 O.co2        1 TMP2002  -1.0000
     5 O5'         16.9400    56.8700     8.0160 O.3          1 TMP2002   0.0000
     6 C5'         16.5550    57.8070     9.0440 C.3          1 TMP2002   0.0000
     7 C4'         17.7520    58.2480     9.8560 C.3          1 TMP2002   0.0000
     8 O4'         18.4320    57.1120    10.4270 O.3          1 TMP2002   0.0000
     9 C3'         18.8350    58.9860     9.0830 C.3          1 TMP2002   0.0000
    10 O3'         18.5210    60.3720     8.9190 O.3          1 TMP2002   0.0000
    11 C2'         20.0340    58.8230     9.9950 C.3          1 TMP2002   0.0000
    12 C1'         19.8150    57.4320    10.5910 C.3          1 TMP2002   0.0000
    13 N1          20.6320    56.3890     9.9200 N.pl3        1 TMP2002   0.0000
    14 C2          21.9880    56.3590    10.2170 C.2          1 TMP2002   0.0000
    15 O2          22.5360    57.1330    10.9880 O.2          1 TMP2002   0.0000
    16 N3          22.6900    55.3790     9.5650 N.pl3        1 TMP2002   0.0000
    17 C4          22.2010    54.4540     8.6580 C.2          1 TMP2002   0.0000
    18 O4          22.9640    53.6350     8.1450 O.2          1 TMP2002   0.0000
    19 C5          20.7840    54.5460     8.3870 C.2          1 TMP2002   0.0000
    20 C5M         20.1730    53.6020     7.3980 C.3          1 TMP2002   0.0000
    21 C6          20.0770    55.4880     9.0270 C.2          1 TMP2002   0.0000
    22 H5'1        15.8913    57.3706     9.6515 H            1 TMP2002   0.0000
    23 H5'2        16.1380    58.6086     8.6155 H            1 TMP2002   0.0000
    24 H4'         17.4338    58.8361    10.5996 H            1 TMP2002   0.0000
    25 H3'         18.9995    58.5511     8.1977 H            1 TMP2002   0.0000
    26 H5          18.0044    60.4988     8.0722 H            1 TMP2002   0.0000
    27 H2'1        20.0426    59.5238    10.7083 H            1 TMP2002   0.0000
    28 H2'2        20.8889    58.8633     9.4777 H            1 TMP2002   0.0000
    29 H1'         20.0373    57.4506    11.5658 H            1 TMP2002   0.0000
    30 H9          23.6678    55.3258     9.7676 H            1 TMP2002   0.0000
    31 H5M1        19.1937    53.7888     7.3200 H            1 TMP2002   0.0000
    32 H5M2        20.6081    53.7259     6.5062 H            1 TMP2002   0.0000
    33 H5M3        20.3092    52.6609     7.7074 H            1 TMP2002   0.0000
    34 H13         19.0944    55.5431     8.8497 H            1 TMP2002   0.0000
@<TRIPOS>BOND
     1    1    2      ar
     2    1    3      ar
     3    1    4      ar
     4    1    5       1
     5    5    6       1
     6    6    7       1
     7    7    8       1
     8    7    9       1
     9    8   12       1
    10    9   10       1
    11    9   11       1
    12   11   12       1
    13   12   13       1
    14   13   14       1
    15   13   21       1
    16   14   15       2
    17   14   16       1
    18   16   17       1
    19   17   18       2
    20   17   19       1
    21   19   20       1
    22   19   21       2
    23   21   34       1
    24   20   33       1
    25    6   22       1
    26    6   23       1
    27    7   24       1
    28    9   25       1
    29   10   26       1
    30   11   27       1
    31   11   28       1
    32   12   29       1
    33   16   30       1
    34   20   31       1
    35   20   32       1
@<TRIPOS>SUBSTRUCTURE
     1 TMP2002     1 GROUP             4 C     TMP     0 **** TMP C2002
