@<TRIPOS>MOLECULE
2uzf_CAA_1_ligand
   90    92     1     0     0
SMALL
NO_CHARGES


@<TRIPOS>ATOM
     1 N1A         10.6870   -17.6080   -32.8130 N.ar         1 CAA1274   0.0000
     2 C2A         11.3510   -17.9300   -33.9140 C.ar         1 CAA1274   0.0000
     3 N3A         10.7400   -18.4590   -34.9640 N.ar         1 CAA1274   0.0000
     4 C4A          9.4180   -18.6870   -34.9400 C.ar         1 CAA1274   0.0000
     5 C5A          8.6950   -18.3650   -33.8070 C.ar         1 CAA1274   0.0000
     6 C6A          9.3620   -17.8110   -32.7240 C.ar         1 CAA1274   0.0000
     7 N6A          8.6980   -17.4890   -31.6170 N.pl3        1 CAA1274   0.0000
     8 N7A          7.4310   -18.6850   -34.0350 N.2          1 CAA1274   0.0000
     9 C8A          7.3540   -19.1860   -35.2650 C.2          1 CAA1274   0.0000
    10 N9A          8.5640   -19.1950   -35.8210 N.pl3        1 CAA1274   0.0000
    11 C1B          8.8920   -19.6820   -37.1880 C.3          1 CAA1274   0.0000
    12 C2B          9.5240   -21.0720   -37.1680 C.3          1 CAA1274   0.0000
    13 O2B         10.9030   -21.0050   -36.7820 O.3          1 CAA1274   0.0000
    14 C3B          9.3980   -21.4410   -38.6440 C.3          1 CAA1274   0.0000
    15 O3B         10.4630   -20.8410   -39.3920 O.3          1 CAA1274   0.0000
    16 P3B         11.2910   -21.6760   -40.5020 P.3          1 CAA1274   0.0000
    17 O7A         10.4990   -21.9540   -41.7240 O.co2        1 CAA1274   0.0000
    18 O8A         12.6090   -20.7880   -40.7830 O.co2        1 CAA1274  -1.0000
    19 O9A         11.8260   -23.0140   -39.7540 O.co2        1 CAA1274  -1.0000
    20 C4B          8.0670   -20.7830   -39.0540 C.3          1 CAA1274   0.0000
    21 O4B          7.6880   -19.9110   -37.9510 O.3          1 CAA1274   0.0000
    22 C5B          6.9490   -21.8190   -39.2780 C.3          1 CAA1274   0.0000
    23 O5B          7.0470   -22.8840   -38.3340 O.3          1 CAA1274   0.0000
    24 P1A          5.7620   -23.7470   -37.9160 P.3          1 CAA1274   0.0000
    25 O1A          6.1700   -24.5590   -36.5680 O.co2        1 CAA1274   0.0000
    26 O2A          5.2790   -24.6710   -38.9750 O.co2        1 CAA1274  -1.0000
    27 O3A          4.6230   -22.6890   -37.4880 O.3          1 CAA1274   0.0000
    28 P2A          3.4400   -23.1250   -36.5010 P.3          1 CAA1274   0.0000
    29 O4A          3.3480   -24.7190   -36.5270 O.co2        1 CAA1274   0.0000
    30 O5A          2.1420   -22.5130   -36.8640 O.co2        1 CAA1274  -1.0000
    31 O6A          3.9070   -22.7330   -34.9820 O.3          1 CAA1274   0.0000
    32 CBP          5.9750   -22.4790   -33.4920 C.3          1 CAA1274   0.0000
    33 CCP          5.1670   -22.0420   -34.7440 C.3          1 CAA1274   0.0000
    34 CDP          5.2880   -23.8850   -33.4280 C.3          1 CAA1274   0.0000
    35 CEP          7.2270   -22.3530   -34.3610 C.3          1 CAA1274   0.0000
    36 CAP          5.4050   -21.2520   -32.7510 C.3          1 CAA1274   0.0000
    37 OAP          3.9680   -21.2280   -32.7620 O.3          1 CAA1274   0.0000
    38 C9P          5.9170   -21.3200   -31.3070 C.2          1 CAA1274   0.0000
    39 O9P          5.4100   -22.1000   -30.5020 O.2          1 CAA1274   0.0000
    40 N8P          6.9290   -20.5030   -31.0160 N.am         1 CAA1274   0.0000
    41 C7P          7.5440   -20.4520   -29.6760 C.3          1 CAA1274   0.0000
    42 C6P          7.1550   -19.1560   -28.9590 C.3          1 CAA1274   0.0000
    43 C5P          8.3600   -18.4700   -28.2940 C.2          1 CAA1274   0.0000
    44 O5P          9.5120   -18.8410   -28.5320 O.2          1 CAA1274   0.0000
    45 N4P          8.0420   -17.4660   -27.4670 N.am         1 CAA1274   0.0000
    46 C3P          9.0440   -16.6710   -26.7290 C.3          1 CAA1274   0.0000
    47 C2P          8.3600   -15.7700   -25.6900 C.3          1 CAA1274   0.0000
    48 S1P          8.7240   -13.9810   -25.8950 S.3          1 CAA1274   0.0000
    49 C1          10.2950   -13.8480   -25.0670 C.2          1 CAA1274   0.0000
    50 O1          10.3170   -13.4270   -23.9090 O.2          1 CAA1274   0.0000
    51 C2          11.6050   -14.2700   -25.7780 C.3          1 CAA1274   0.0000
    52 C3          12.6110   -13.1140   -25.9660 C.2          1 CAA1274   0.0000
    53 O3          12.9280   -12.7400   -27.0930 O.2          1 CAA1274   0.0000
    54 C4          13.2500   -12.4380   -24.7520 C.3          1 CAA1274   0.0000
    55 H2A         12.3373   -17.7698   -33.9532 H            1 CAA1274   0.0000
    56 H6A1         7.7117   -17.6447   -31.5624 H            1 CAA1274   0.0000
    57 H6A2         9.1852   -17.0912   -30.8396 H            1 CAA1274   0.0000
    58 H8A          6.5153   -19.5069   -35.7050 H            1 CAA1274   0.0000
    59 H1B          9.4881   -19.0318   -37.6590 H            1 CAA1274   0.0000
    60 H2B          9.0093   -21.7018   -36.5862 H            1 CAA1274   0.0000
    61 H7          11.0397   -20.2283   -36.1671 H            1 CAA1274   0.0000
    62 H3B          9.3722   -22.4323   -38.7733 H            1 CAA1274   0.0000
    63 H4B          8.1984   -20.2414   -39.8843 H            1 CAA1274   0.0000
    64 H5B1         7.0285   -22.1922   -40.2023 H            1 CAA1274   0.0000
    65 H5B2         6.0612   -21.3704   -39.1749 H            1 CAA1274   0.0000
    66 HCP1         4.9651   -21.0672   -34.6495 H            1 CAA1274   0.0000
    67 HCP2         5.7478   -22.1860   -35.5452 H            1 CAA1274   0.0000
    68 HDP1         5.6569   -24.4014   -32.6552 H            1 CAA1274   0.0000
    69 HDP2         4.3017   -23.7690   -33.3110 H            1 CAA1274   0.0000
    70 HDP3         5.4668   -24.3823   -34.2770 H            1 CAA1274   0.0000
    71 HEP1         8.0340   -22.5870   -33.8188 H            1 CAA1274   0.0000
    72 HEP2         7.1564   -22.9764   -35.1397 H            1 CAA1274   0.0000
    73 HEP3         7.3093   -21.4132   -34.6928 H            1 CAA1274   0.0000
    74 HAP          5.7503   -20.4186   -33.1825 H            1 CAA1274   0.0000
    75 H21          3.6335   -21.6726   -33.5930 H            1 CAA1274   0.0000
    76 H8P          7.2845   -19.9025   -31.7323 H            1 CAA1274   0.0000
    77 H7P1         8.5389   -20.4916   -29.7684 H            1 CAA1274   0.0000
    78 H7P2         7.2278   -21.2337   -29.1384 H            1 CAA1274   0.0000
    79 H6P1         6.4779   -19.3693   -28.2547 H            1 CAA1274   0.0000
    80 H6P2         6.7554   -18.5273   -29.6261 H            1 CAA1274   0.0000
    81 H4P          7.0752   -17.2429   -27.3426 H            1 CAA1274   0.0000
    82 H3P1         9.5519   -16.1010   -27.3749 H            1 CAA1274   0.0000
    83 H3P2         9.6758   -17.2899   -26.2623 H            1 CAA1274   0.0000
    84 H2P1         8.6662   -16.0508   -24.7804 H            1 CAA1274   0.0000
    85 H2P2         7.3712   -15.9000   -25.7637 H            1 CAA1274   0.0000
    86 H32         11.3714   -14.6346   -26.6794 H            1 CAA1274   0.0000
    87 H33         12.0437   -14.9845   -25.2329 H            1 CAA1274   0.0000
    88 H34         13.8703   -11.7168   -25.0602 H            1 CAA1274   0.0000
    89 H35         12.5350   -12.0397   -24.1775 H            1 CAA1274   0.0000
    90 H36         13.7625   -13.1156   -24.2245 H            1 CAA1274   0.0000
@<TRIPOS>BOND
     1    1    2      ar
     2    1    6      ar
     3    2    3      ar
     4    3    4      ar
     5    4    5      ar
     6    4   10       1
     7    5    6      ar
     8    5    8       1
     9    6    7       1
    10    8    9       2
    11    9   10       1
    12   10   11       1
    13   11   12       1
    14   11   21       1
    15   12   13       1
    16   12   14       1
    17   14   15       1
    18   14   20       1
    19   15   16       1
    20   16   17      ar
    21   16   18      ar
    22   16   19      ar
    23   20   21       1
    24   20   22       1
    25   22   23       1
    26   23   24       1
    27   24   25      ar
    28   24   26      ar
    29   24   27       1
    30   27   28       1
    31   28   29      ar
    32   28   30      ar
    33   28   31       1
    34   31   33       1
    35   32   33       1
    36   32   34       1
    37   32   35       1
    38   32   36       1
    39   36   37       1
    40   36   38       1
    41   38   39       2
    42   38   40      am
    43   40   41       1
    44   41   42       1
    45   42   43       1
    46   43   44       2
    47   43   45      am
    48   45   46       1
    49   46   47       1
    50   47   48       1
    51   48   49       1
    52   49   50       2
    53   49   51       1
    54   51   52       1
    55   52   53       2
    56   52   54       1
    57    2   55       1
    58    7   56       1
    59    7   57       1
    60    9   58       1
    61   11   59       1
    62   12   60       1
    63   13   61       1
    64   14   62       1
    65   54   90       1
    66   54   89       1
    67   20   63       1
    68   22   64       1
    69   22   65       1
    70   54   88       1
    71   51   87       1
    72   33   66       1
    73   33   67       1
    74   34   68       1
    75   34   69       1
    76   34   70       1
    77   35   71       1
    78   35   72       1
    79   35   73       1
    80   36   74       1
    81   37   75       1
    82   40   76       1
    83   41   77       1
    84   41   78       1
    85   42   79       1
    86   42   80       1
    87   45   81       1
    88   46   82       1
    89   46   83       1
    90   47   84       1
    91   47   85       1
    92   51   86       1
@<TRIPOS>SUBSTRUCTURE
     1 CAA1274     1 GROUP             4 A     CAA     0 **** CAA A1274
