@<TRIPOS>MOLECULE
1n6c_SAM_1_ligand
   51    53     1     0     0
SMALL
NO_CHARGES


@<TRIPOS>ATOM
     1 N            9.4100    51.7910    21.0770 N.4          1 SAM402   1.0000
     2 CA           8.6360    52.4320    20.0140 C.3          1 SAM402   0.0000
     3 C            8.4080    51.5910    18.7640 C.2          1 SAM402   0.0000
     4 O            8.8480    50.4360    18.6940 O.co2        1 SAM402   0.0000
     5 OXT          7.7730    52.0670    17.7970 O.co2        1 SAM402  -1.0000
     6 CB           9.2910    53.8080    19.6470 C.3          1 SAM402   0.0000
     7 CG           9.1480    55.0790    20.5250 C.3          1 SAM402   0.0000
     8 SD           7.2990    55.2500    20.7410 S.3          1 SAM402   1.0000
     9 CE           7.2530    57.0440    20.5880 C.3          1 SAM402   0.0000
    10 C5'          6.6590    55.0310    22.4890 C.3          1 SAM402   0.0000
    11 C4'          6.5290    53.6550    23.0380 C.3          1 SAM402   0.0000
    12 O4'          7.7940    52.9590    23.1010 O.3          1 SAM402   0.0000
    13 C3'          6.0050    53.4060    24.4490 C.3          1 SAM402   0.0000
    14 O3'          4.7200    53.9430    24.5530 O.3          1 SAM402   0.0000
    15 C2'          6.4630    51.9060    24.7010 C.3          1 SAM402   0.0000
    16 O2'          5.4230    51.1970    24.1770 O.3          1 SAM402   0.0000
    17 C1'          7.9510    52.2610    24.3710 C.3          1 SAM402   0.0000
    18 N9           9.0390    53.0590    24.9650 N.pl3        1 SAM402   0.0000
    19 C8           9.7670    54.2760    24.8780 C.2          1 SAM402   0.0000
    20 N7          10.7140    54.4470    25.7540 N.2          1 SAM402   0.0000
    21 C5          10.6750    53.2930    26.5230 C.ar         1 SAM402   0.0000
    22 C6          11.4550    52.8190    27.6730 C.ar         1 SAM402   0.0000
    23 N6          12.4530    53.5190    28.2270 N.pl3        1 SAM402   0.0000
    24 N1          11.1460    51.5550    28.2400 N.ar         1 SAM402   1.0000
    25 C2          10.1270    50.7940    27.7100 C.ar         1 SAM402   0.0000
    26 N3           9.3250    51.1140    26.6440 N.ar         1 SAM402   0.0000
    27 C4           9.6590    52.4150    26.0760 C.ar         1 SAM402   0.0000
    28 H1           9.5030    52.4211    21.8480 H            1 SAM402   0.0000
    29 H2           8.9390    50.9621    21.3788 H            1 SAM402   0.0000
    30 HA           7.7337    52.6339    20.3950 H            1 SAM402   0.0000
    31 HB1          8.9285    54.0534    18.7479 H            1 SAM402   0.0000
    32 HB2         10.2730    53.6338    19.5743 H            1 SAM402   0.0000
    33 HG1          9.5297    55.8788    20.0617 H            1 SAM402   0.0000
    34 HG2          9.6017    54.9571    21.4078 H            1 SAM402   0.0000
    35 HE1          6.3092    57.3621    20.6778 H            1 SAM402   0.0000
    36 HE2          7.8130    57.4544    21.3077 H            1 SAM402   0.0000
    37 HE3          7.6112    57.3116    19.6935 H            1 SAM402   0.0000
    38 H5'1         5.7508    55.4482    22.5237 H            1 SAM402   0.0000
    39 H5'2         7.2789    55.5312    23.0936 H            1 SAM402   0.0000
    40 H4'          5.9420    53.1424    22.4114 H            1 SAM402   0.0000
    41 H3'          6.5775    53.9646    25.0491 H            1 SAM402   0.0000
    42 H15          4.5558    54.2346    25.4954 H            1 SAM402   0.0000
    43 H2'          6.4238    51.7662    25.6904 H            1 SAM402   0.0000
    44 H17          4.7361    51.8289    23.8180 H            1 SAM402   0.0000
    45 H1'          8.3754    51.3876    24.1321 H            1 SAM402   0.0000
    46 H19          9.5628    54.9638    24.1814 H            1 SAM402   0.0000
    47 H20         12.9506    53.1461    29.0102 H            1 SAM402   0.0000
    48 H21         12.7007    54.4146    27.8576 H            1 SAM402   0.0000
    49 H22          9.9532    49.9130    28.1500 H            1 SAM402   0.0000
    50 H23         10.3171    51.5516    20.7309 H            1 SAM402   0.0000
    51 H24         11.6675    51.2171    29.0235 H            1 SAM402   0.0000
@<TRIPOS>BOND
     1    1    2       1
     2    2    3       1
     3    2    6       1
     4    3    4      ar
     5    3    5      ar
     6    6    7       1
     7    7    8       1
     8    8    9       1
     9    8   10       1
    10   10   11       1
    11   11   12       1
    12   11   13       1
    13   12   17       1
    14   13   14       1
    15   13   15       1
    16   15   16       1
    17   15   17       1
    18   17   18       1
    19   18   19       1
    20   18   27       1
    21   19   20       2
    22   20   21       1
    23   21   22      ar
    24   21   27      ar
    25   22   23       1
    26   22   24      ar
    27   24   25      ar
    28   25   26      ar
    29   26   27      ar
    30    1   28       1
    31    1   29       1
    32    2   30       1
    33    1   50       1
    34    6   31       1
    35    6   32       1
    36    7   33       1
    37    7   34       1
    38    9   35       1
    39    9   36       1
    40    9   37       1
    41   10   38       1
    42   10   39       1
    43   11   40       1
    44   13   41       1
    45   14   42       1
    46   15   43       1
    47   16   44       1
    48   17   45       1
    49   19   46       1
    50   23   47       1
    51   23   48       1
    52   25   49       1
    53   24   51       1
@<TRIPOS>SUBSTRUCTURE
     1 SAM402      1 GROUP             4 A     SAM     0 **** SAM A 402
