@<TRIPOS>MOLECULE
2yye_APC_2_ligand
   45    47     1     0     0
SMALL
NO_CHARGES


@<TRIPOS>ATOM
     1 PG          47.5370     0.7870   104.7170 P.3          1 APC601   0.0000
     2 O1G         49.0140     0.9420   104.8110 O.co2        1 APC601   0.0000
     3 O2G         46.7760     1.7330   105.7740 O.co2        1 APC601  -1.0000
     4 O3G         46.9750     1.1820   103.2790 O.co2        1 APC601  -1.0000
     5 PB          47.5710    -2.0530   104.2020 P.3          1 APC601   0.0000
     6 O1B         48.5210    -1.5930   103.1560 O.co2        1 APC601   0.0000
     7 O2B         48.0710    -3.0150   105.1980 O.co2        1 APC601  -1.0000
     8 O3B         46.9890    -0.7480   105.0000 O.3          1 APC601   0.0000
     9 PA          45.0520    -1.5990   102.5320 P.3          1 APC601   0.0000
    10 O1A         45.8710    -0.7550   101.6240 O.co2        1 APC601   0.0000
    11 O2A         44.2380    -0.9370   103.5830 O.co2        1 APC601  -1.0000
    12 C3A         46.1120    -2.8140   103.3870 C.3          1 APC601   0.0000
    13 O5'         44.0950    -2.5430   101.6320 O.3          1 APC601   0.0000
    14 C5'         43.2240    -3.4720   102.2900 C.3          1 APC601   0.0000
    15 C4'         43.1910    -4.8190   101.5690 C.3          1 APC601   0.0000
    16 O4'         42.6300    -4.6180   100.2220 O.3          1 APC601   0.0000
    17 C3'         44.6340    -5.3080   101.3570 C.3          1 APC601   0.0000
    18 O3'         44.6690    -6.7340   101.1940 O.3          1 APC601   0.0000
    19 C2'         44.9950    -4.6020   100.0610 C.3          1 APC601   0.0000
    20 O2'         46.0250    -5.3390    99.3830 O.3          1 APC601   0.0000
    21 C1'         43.6980    -4.7610    99.2670 C.3          1 APC601   0.0000
    22 N9          43.5860    -3.7010    98.2260 N.pl3        1 APC601   0.0000
    23 C8          43.5660    -2.3770    98.4620 C.2          1 APC601   0.0000
    24 N7          43.3650    -1.7250    97.3070 N.2          1 APC601   0.0000
    25 C5          43.2670    -2.6380    96.3400 C.ar         1 APC601   0.0000
    26 C6          43.0540    -2.5590    94.9730 C.ar         1 APC601   0.0000
    27 N6          42.9080    -1.3700    94.3820 N.pl3        1 APC601   0.0000
    28 N1          42.9990    -3.6980    94.2460 N.ar         1 APC601   0.0000
    29 C2          43.1430    -4.8860    94.8320 C.ar         1 APC601   0.0000
    30 N3          43.3470    -4.9860    96.1460 N.ar         1 APC601   0.0000
    31 C4          43.4080    -3.8870    96.9180 C.ar         1 APC601   0.0000
    32 H3A1        45.5651    -3.2786   104.0835 H            1 APC601   0.0000
    33 H3A2        46.4348    -3.4819   102.7164 H            1 APC601   0.0000
    34 H5'1        42.2993    -3.0918   102.3100 H            1 APC601   0.0000
    35 H5'2        43.5469    -3.6126   103.2259 H            1 APC601   0.0000
    36 H4'         42.6567    -5.4891   102.0842 H            1 APC601   0.0000
    37 H3'         45.2285    -5.0151   102.1058 H            1 APC601   0.0000
    38 H7          45.2336    -7.1380   101.9137 H            1 APC601   0.0000
    39 H2'         45.2412    -3.6433   100.2034 H            1 APC601   0.0000
    40 H9          45.9373    -6.3112    99.6003 H            1 APC601   0.0000
    41 H1'         43.6622    -5.6659    98.8428 H            1 APC601   0.0000
    42 H11         43.6826    -1.9466    99.3571 H            1 APC601   0.0000
    43 H12         42.7545    -1.3176    93.3952 H            1 APC601   0.0000
    44 H13         42.9522    -0.5323    94.9263 H            1 APC601   0.0000
    45 H14         43.0973    -5.7166    94.2770 H            1 APC601   0.0000
@<TRIPOS>BOND
     1    1    2      ar
     2    1    3      ar
     3    1    4      ar
     4    1    8       1
     5    5    6      ar
     6    5    7      ar
     7    5    8       1
     8    5   12       1
     9    9   10      ar
    10    9   11      ar
    11    9   12       1
    12    9   13       1
    13   13   14       1
    14   14   15       1
    15   15   16       1
    16   15   17       1
    17   16   21       1
    18   17   18       1
    19   17   19       1
    20   19   20       1
    21   19   21       1
    22   21   22       1
    23   22   23       1
    24   22   31       1
    25   23   24       2
    26   24   25       1
    27   25   26      ar
    28   25   31      ar
    29   26   27       1
    30   26   28      ar
    31   28   29      ar
    32   29   30      ar
    33   30   31      ar
    34   29   45       1
    35   27   44       1
    36   27   43       1
    37   23   42       1
    38   12   32       1
    39   12   33       1
    40   14   34       1
    41   14   35       1
    42   15   36       1
    43   17   37       1
    44   18   38       1
    45   19   39       1
    46   20   40       1
    47   21   41       1
@<TRIPOS>SUBSTRUCTURE
     1 APC601      1 GROUP             4 B     APC     0 **** APC B 601
