@<TRIPOS>MOLECULE
2mjp_ANP_1_ligand
   44    46     1     0     0
SMALL
NO_CHARGES


@<TRIPOS>ATOM
     1 PG          23.1120    15.4960    -6.0720 P.3          1 ANP500   0.0000
     2 O1G         21.7820    15.3180    -6.7150 O.co2        1 ANP500   0.0000
     3 O2G         24.2490    15.6590    -7.0390 O.co2        1 ANP500  -1.0000
     4 O3G         23.0840    16.5860    -5.0490 O.co2        1 ANP500  -1.0000
     5 PB          22.3390    13.3310    -4.1250 P.3          1 ANP500   0.0000
     6 O1B         22.6540    11.8750    -4.1330 O.co2        1 ANP500   0.0000
     7 O2B         20.9300    13.7520    -4.4110 O.co2        1 ANP500  -1.0000
     8 N3B         23.3510    14.1160    -5.2060 N.3          1 ANP500   0.0000
     9 PA          24.1560    14.2690    -1.8900 P.3          1 ANP500   0.0000
    10 O1A         25.0940    15.0090    -2.7970 O.co2        1 ANP500   0.0000
    11 O2A         23.8150    14.8580    -0.5640 O.co2        1 ANP500  -1.0000
    12 O3A         22.8010    13.9450    -2.7170 O.3          1 ANP500   0.0000
    13 O5'         24.6420    12.7530    -1.7370 O.3          1 ANP500   0.0000
    14 C5'         23.9430    11.8190    -0.8670 C.3          1 ANP500   0.0000
    15 C4'         24.4840    10.4070    -0.9000 C.3          1 ANP500   0.0000
    16 O4'         25.9000    10.2680    -0.6190 O.3          1 ANP500   0.0000
    17 C3'         23.7530     9.4300     0.0090 C.3          1 ANP500   0.0000
    18 O3'         23.0240     8.5630    -0.8360 O.3          1 ANP500   0.0000
    19 C2'         24.7920     8.7000     0.7940 C.3          1 ANP500   0.0000
    20 O2'         24.7950     7.2850     0.5510 O.3          1 ANP500   0.0000
    21 C1'         26.1370     9.2330     0.3710 C.3          1 ANP500   0.0000
    22 N9          27.0280     9.6510     1.5260 N.pl3        1 ANP500   0.0000
    23 C8          26.7180     9.9120     2.8540 C.2          1 ANP500   0.0000
    24 N7          27.7370    10.2370     3.6080 N.2          1 ANP500   0.0000
    25 C5          28.8100    10.1880     2.7160 C.ar         1 ANP500   0.0000
    26 C6          30.2410    10.4300     2.8650 C.ar         1 ANP500   0.0000
    27 N6          30.7570    10.7700     4.0220 N.pl3        1 ANP500   0.0000
    28 N1          31.0490    10.2960     1.7620 N.ar         1 ANP500   0.0000
    29 C2          30.5000     9.9440     0.5830 C.ar         1 ANP500   0.0000
    30 N3          29.1890     9.6870     0.3100 N.ar         1 ANP500   0.0000
    31 C4          28.3890     9.8320     1.4420 C.ar         1 ANP500   0.0000
    32 H3B         24.1776    14.3019    -4.6748 H            1 ANP500   0.0000
    33 H5'1        22.9827    11.7922    -1.1447 H            1 ANP500   0.0000
    34 H5'2        24.0092    12.1571     0.0718 H            1 ANP500   0.0000
    35 H4'         24.3492    10.0763    -1.8341 H            1 ANP500   0.0000
    36 H3'         23.1340     9.9209     0.6221 H            1 ANP500   0.0000
    37 H6          22.5239     7.8987    -0.2805 H            1 ANP500   0.0000
    38 H2'         24.6560     8.8716     1.7697 H            1 ANP500   0.0000
    39 H8          25.7217     6.9284     0.6698 H            1 ANP500   0.0000
    40 H1'         26.6073     8.4866    -0.0998 H            1 ANP500   0.0000
    41 H10         25.7846     9.8558     3.2083 H            1 ANP500   0.0000
    42 H11         31.7406    10.9314     4.1028 H            1 ANP500   0.0000
    43 H12         30.1668    10.8678     4.8233 H            1 ANP500   0.0000
    44 H13         31.1323     9.8609    -0.1873 H            1 ANP500   0.0000
@<TRIPOS>BOND
     1    1    2      ar
     2    1    3      ar
     3    1    4      ar
     4    1    8       1
     5    5    6      ar
     6    5    7      ar
     7    5    8       1
     8    5   12       1
     9    9   10      ar
    10    9   11      ar
    11    9   12       1
    12    9   13       1
    13   13   14       1
    14   14   15       1
    15   15   16       1
    16   15   17       1
    17   16   21       1
    18   17   18       1
    19   17   19       1
    20   19   20       1
    21   19   21       1
    22   21   22       1
    23   22   23       1
    24   22   31       1
    25   23   24       2
    26   24   25       1
    27   25   26      ar
    28   25   31      ar
    29   26   27       1
    30   26   28      ar
    31   28   29      ar
    32   29   30      ar
    33   30   31      ar
    34   29   44       1
    35   27   43       1
    36   27   42       1
    37    8   32       1
    38   23   41       1
    39   14   33       1
    40   14   34       1
    41   15   35       1
    42   17   36       1
    43   18   37       1
    44   19   38       1
    45   20   39       1
    46   21   40       1
@<TRIPOS>SUBSTRUCTURE
     1 ANP500      1 GROUP             4 A     ANP     0 **** ANP A 500
