@<TRIPOS>MOLECULE
2zbz_VDX_1_ligand
   74    76     1     0     0
SMALL
NO_CHARGES


@<TRIPOS>ATOM
     1 O2          -6.0080     7.8960     9.1400 O.3          1 VDX501   0.0000
     2 O3           3.6200    -0.2270    14.7440 O.3          1 VDX501   0.0000
     3 C1          -2.5020     8.1860    10.5570 C.3          1 VDX501   0.0000
     4 C2          -3.7340     8.5050     9.7080 C.3          1 VDX501   0.0000
     5 C3          -4.8900     7.5270     9.9510 C.3          1 VDX501   0.0000
     6 C4          -5.3230     7.5260    11.4160 C.3          1 VDX501   0.0000
     7 C5          -4.1230     7.3340    12.3080 C.2          1 VDX501   0.0000
     8 C6          -4.2290     6.4470    13.3100 C.2          1 VDX501   0.0000
     9 C7          -3.1580     6.1510    14.2570 C.2          1 VDX501   0.0000
    10 C8          -3.3650     5.3260    15.2970 C.2          1 VDX501   0.0000
    11 C9          -4.7180     4.6700    15.5350 C.3          1 VDX501   0.0000
    12 C10         -2.9130     8.1090    11.9970 C.2          1 VDX501   0.0000
    13 C11         -4.5990     3.2420    16.0880 C.3          1 VDX501   0.0000
    14 C12         -3.4130     2.9970    17.0360 C.3          1 VDX501   0.0000
    15 C13         -2.0920     3.5380    16.4920 C.3          1 VDX501   0.0000
    16 C14         -2.2730     5.0320    16.2920 C.3          1 VDX501   0.0000
    17 C15         -0.8720     5.5860    16.0580 C.3          1 VDX501   0.0000
    18 C16         -0.0160     4.7290    16.9880 C.3          1 VDX501   0.0000
    19 C17         -0.8940     3.5520    17.4460 C.3          1 VDX501   0.0000
    20 C18         -1.7240     2.8090    15.1900 C.3          1 VDX501   0.0000
    21 C19         -2.2040     8.7430    12.9180 C.2          1 VDX501   0.0000
    22 C20         -0.1330     2.2230    17.5910 C.3          1 VDX501   0.0000
    23 C21         -0.8610     1.3000    18.5660 C.3          1 VDX501   0.0000
    24 C22          1.3330     2.4130    18.0010 C.3          1 VDX501   0.0000
    25 C23          2.1620     1.1370    17.8630 C.3          1 VDX501   0.0000
    26 C24          3.0560     1.1530    16.6240 C.3          1 VDX501   0.0000
    27 C25          2.5140     0.3540    15.4350 C.3          1 VDX501   0.0000
    28 C26          1.5920    -0.7900    15.8440 C.3          1 VDX501   0.0000
    29 C27          1.8140     1.2840    14.4520 C.3          1 VDX501   0.0000
    30 O1          -1.9540     6.9250    10.1600 O.3          1 VDX501   0.0000
    31 H1          -5.6819     8.3337     8.3021 H            1 VDX501   0.0000
    32 H2           3.3333    -1.0850    14.3179 H            1 VDX501   0.0000
    33 H3          -1.8160     8.9041    10.4397 H            1 VDX501   0.0000
    34 H4          -3.4768     8.4627     8.7426 H            1 VDX501   0.0000
    35 H5          -4.0449     9.4292     9.9300 H            1 VDX501   0.0000
    36 H6          -4.5950     6.6055     9.6984 H            1 VDX501   0.0000
    37 H7          -5.9720     6.7808    11.5690 H            1 VDX501   0.0000
    38 H8          -5.7604     8.3988    11.6326 H            1 VDX501   0.0000
    39 H9          -5.0954     5.9586    13.4143 H            1 VDX501   0.0000
    40 H10         -2.2580     6.5680    14.1298 H            1 VDX501   0.0000
    41 H11         -5.2136     4.6361    14.6671 H            1 VDX501   0.0000
    42 H12         -5.2309     5.2245    16.1903 H            1 VDX501   0.0000
    43 H13         -4.5077     2.6176    15.3122 H            1 VDX501   0.0000
    44 H14         -5.4404     3.0334    16.5866 H            1 VDX501   0.0000
    45 H15         -3.3186     2.0120    17.1803 H            1 VDX501   0.0000
    46 H16         -3.6053     3.4449    17.9092 H            1 VDX501   0.0000
    47 H17         -2.5812     5.4006    17.1690 H            1 VDX501   0.0000
    48 H18         -0.8196     6.5529    16.3079 H            1 VDX501   0.0000
    49 H19         -0.5935     5.4726    15.1043 H            1 VDX501   0.0000
    50 H20          0.2774     5.2670    17.7783 H            1 VDX501   0.0000
    51 H21          0.7875     4.3888    16.4995 H            1 VDX501   0.0000
    52 H22         -1.2460     3.7865    18.3522 H            1 VDX501   0.0000
    53 H23         -0.8588     3.1681    14.8400 H            1 VDX501   0.0000
    54 H24         -1.6296     1.8301    15.3713 H            1 VDX501   0.0000
    55 H25         -2.4441     2.9544    14.5116 H            1 VDX501   0.0000
    56 H26         -2.4751     8.6939    13.8793 H            1 VDX501   0.0000
    57 H27         -1.3974     9.2710    12.6523 H            1 VDX501   0.0000
    58 H28         -0.1378     1.7765    16.6962 H            1 VDX501   0.0000
    59 H29         -0.3567     0.4407    18.6512 H            1 VDX501   0.0000
    60 H30         -0.9210     1.7415    19.4613 H            1 VDX501   0.0000
    61 H31         -1.7820     1.1135    18.2239 H            1 VDX501   0.0000
    62 H32          1.3610     2.7094    18.9556 H            1 VDX501   0.0000
    63 H33          1.7371     3.1199    17.4205 H            1 VDX501   0.0000
    64 H34          1.5408     0.3559    17.8005 H            1 VDX501   0.0000
    65 H35          2.7391     1.0399    18.6739 H            1 VDX501   0.0000
    66 H36          3.9453     0.7717    16.8764 H            1 VDX501   0.0000
    67 H37          3.1707     2.1033    16.3346 H            1 VDX501   0.0000
    68 H38          0.8012    -0.4222    16.3332 H            1 VDX501   0.0000
    69 H39          1.2819    -1.2765    15.0272 H            1 VDX501   0.0000
    70 H40          2.0883    -1.4214    16.4398 H            1 VDX501   0.0000
    71 H41          1.0295     1.7129    14.8998 H            1 VDX501   0.0000
    72 H42          2.4529     1.9913    14.1496 H            1 VDX501   0.0000
    73 H43          1.5002     0.7582    13.6614 H            1 VDX501   0.0000
    74 H44         -0.9661     6.9272    10.3150 H            1 VDX501   0.0000
@<TRIPOS>BOND
     1    1    5       1
     2    2   27       1
     3    3    4       1
     4    3   12       1
     5    3   30       1
     6    4    5       1
     7    5    6       1
     8    6    7       1
     9    7    8       2
    10    7   12       1
    11    8    9       1
    12    9   10       2
    13   10   11       1
    14   10   16       1
    15   11   13       1
    16   12   21       2
    17   13   14       1
    18   14   15       1
    19   15   16       1
    20   15   19       1
    21   15   20       1
    22   16   17       1
    23   17   18       1
    24   18   19       1
    25   19   22       1
    26   22   23       1
    27   22   24       1
    28   24   25       1
    29   25   26       1
    30   26   27       1
    31   27   28       1
    32   27   29       1
    33    1   31       1
    34    2   32       1
    35    3   33       1
    36    4   34       1
    37    4   35       1
    38    5   36       1
    39    6   37       1
    40    6   38       1
    41    8   39       1
    42    9   40       1
    43   11   41       1
    44   11   42       1
    45   13   43       1
    46   13   44       1
    47   14   45       1
    48   14   46       1
    49   16   47       1
    50   17   48       1
    51   17   49       1
    52   18   50       1
    53   18   51       1
    54   19   52       1
    55   20   53       1
    56   20   54       1
    57   20   55       1
    58   21   56       1
    59   21   57       1
    60   22   58       1
    61   23   59       1
    62   23   60       1
    63   23   61       1
    64   24   62       1
    65   24   63       1
    66   25   64       1
    67   25   65       1
    68   26   66       1
    69   26   67       1
    70   28   68       1
    71   28   69       1
    72   28   70       1
    73   29   71       1
    74   29   72       1
    75   29   73       1
    76   30   74       1
@<TRIPOS>SUBSTRUCTURE
     1 VDX501      1 GROUP             4 A     VDX     0 **** VDX A 501
