@<TRIPOS>MOLECULE
3r1v_AZB_1_ligand
   34    35     1     0     0
SMALL
NO_CHARGES


@<TRIPOS>ATOM
     1 C1           0.9940    -5.4080    13.8280 C.3          1 AZB128   0.0000
     2 N1           6.5190    -4.8930    17.2430 N.2          1 AZB128   0.0000
     3 O1          11.8140    -4.7130    20.9100 O.3          1 AZB128   0.0000
     4 N2           6.7490    -4.2830    18.3640 N.2          1 AZB128   0.0000
     5 C3           2.3440    -3.6600    12.5510 C.3          1 AZB128   0.0000
     6 C4           8.9690    -5.4980    18.7280 C.ar         1 AZB128   0.0000
     7 C5          10.2540    -5.5820    19.4070 C.ar         1 AZB128   0.0000
     8 C6          10.6400    -4.6420    20.3010 C.ar         1 AZB128   0.0000
     9 C7           9.7500    -3.6380    20.5270 C.ar         1 AZB128   0.0000
    10 C8           8.4340    -3.5640    19.8270 C.ar         1 AZB128   0.0000
    11 C9           8.0430    -4.4920    18.9390 C.ar         1 AZB128   0.0000
    12 C11          3.2380    -3.6980    15.9130 C.ar         1 AZB128   0.0000
    13 C12          4.3510    -3.8290    16.7840 C.ar         1 AZB128   0.0000
    14 C13          5.4400    -4.7520    16.4410 C.ar         1 AZB128   0.0000
    15 C14          5.3690    -5.5310    15.2300 C.ar         1 AZB128   0.0000
    16 C15          4.1980    -5.3760    14.3300 C.ar         1 AZB128   0.0000
    17 C16          3.1530    -4.4530    14.7080 C.ar         1 AZB128   0.0000
    18 C17          1.9400    -4.2390    13.8600 C.3          1 AZB128   0.0000
    19 H1           0.7995    -5.7051    14.7628 H            1 AZB128   0.0000
    20 H2           0.1421    -5.1353    13.3809 H            1 AZB128   0.0000
    21 H3           1.4114    -6.1608    13.3190 H            1 AZB128   0.0000
    22 H4          12.0798    -4.0078    21.5673 H            1 AZB128   0.0000
    23 H5           2.9696    -2.8949    12.7038 H            1 AZB128   0.0000
    24 H6           2.8017    -4.3606    12.0036 H            1 AZB128   0.0000
    25 H7           1.5324    -3.3351    12.0655 H            1 AZB128   0.0000
    26 H8           8.7411    -6.2130    18.0670 H            1 AZB128   0.0000
    27 H9          10.8636    -6.3495    19.2089 H            1 AZB128   0.0000
    28 H10          9.9862    -2.9239    21.1860 H            1 AZB128   0.0000
    29 H11          7.8231    -2.7977    20.0260 H            1 AZB128   0.0000
    30 H12          2.5009    -3.0649    16.1493 H            1 AZB128   0.0000
    31 H13          4.3933    -3.2946    17.6282 H            1 AZB128   0.0000
    32 H14          6.1021    -6.1703    14.9980 H            1 AZB128   0.0000
    33 H15          4.1342    -5.8994    13.4803 H            1 AZB128   0.0000
    34 H16          1.4318    -3.5095    14.3178 H            1 AZB128   0.0000
@<TRIPOS>BOND
     1    1   18       1
     2    2    4       2
     3    2   14       1
     4    3    8       1
     5    4   11       1
     6    5   18       1
     7    6    7      ar
     8    6   11      ar
     9    7    8      ar
    10    8    9      ar
    11    9   10      ar
    12   10   11      ar
    13   12   13      ar
    14   12   17      ar
    15   13   14      ar
    16   14   15      ar
    17   15   16      ar
    18   16   17      ar
    19   17   18       1
    20    1   19       1
    21    1   20       1
    22    1   21       1
    23    3   22       1
    24    5   23       1
    25    5   24       1
    26    5   25       1
    27    6   26       1
    28    7   27       1
    29    9   28       1
    30   10   29       1
    31   12   30       1
    32   13   31       1
    33   15   32       1
    34   16   33       1
    35   18   34       1
@<TRIPOS>SUBSTRUCTURE
     1 AZB128      1 GROUP             4 A     AZB     0 **** AZB A 128
