@<TRIPOS>MOLECULE
2pg0_FAD_2_ligand
   84    89     1     0     0
SMALL
NO_CHARGES


@<TRIPOS>ATOM
     1 PA         -19.1870    50.8470    -2.2240 P.3          1 FAD401   0.0000
     2 O1A        -19.3860    51.9930    -3.1920 O.co2        1 FAD401   0.0000
     3 O2A        -19.1970    49.4750    -2.8490 O.co2        1 FAD401  -1.0000
     4 O5B        -20.3250    50.9070    -1.0840 O.3          1 FAD401   0.0000
     5 C5B        -20.4630    52.0590    -0.2800 C.3          1 FAD401   0.0000
     6 C4B        -21.5550    51.7890     0.7420 C.3          1 FAD401   0.0000
     7 O4B        -22.7220    51.4090     0.0420 O.3          1 FAD401   0.0000
     8 C3B        -21.1870    50.6350     1.6670 C.3          1 FAD401   0.0000
     9 O3B        -21.1360    51.0840     2.9930 O.3          1 FAD401   0.0000
    10 C2B        -22.3560    49.6880     1.6250 C.3          1 FAD401   0.0000
    11 O2B        -23.0030    49.7940     2.8700 O.3          1 FAD401   0.0000
    12 C1B        -23.3410    50.3040     0.6600 C.3          1 FAD401   0.0000
    13 N9A        -23.8600    49.3010    -0.2890 N.pl3        1 FAD401   0.0000
    14 C8A        -23.3710    48.9370    -1.5210 C.2          1 FAD401   0.0000
    15 N7A        -24.1800    47.9790    -2.0380 N.2          1 FAD401   0.0000
    16 C5A        -25.1750    47.7340    -1.1510 C.ar         1 FAD401   0.0000
    17 C6A        -26.2630    46.8690    -1.1570 C.ar         1 FAD401   0.0000
    18 N6A        -26.5090    46.0890    -2.2080 N.pl3        1 FAD401   0.0000
    19 N1A        -27.1180    46.8530    -0.0710 N.ar         1 FAD401   0.0000
    20 C2A        -26.9120    47.6800     1.0150 C.ar         1 FAD401   0.0000
    21 N3A        -25.8340    48.5390     1.0150 N.ar         1 FAD401   0.0000
    22 C4A        -24.9850    48.5620    -0.0490 C.ar         1 FAD401   0.0000
    23 N1          -9.3830    46.7640    -2.1570 N.2          1 FAD401   0.0000
    24 C2          -8.5720    45.8480    -2.8110 C.2          1 FAD401   0.0000
    25 O2          -8.9740    45.2830    -3.8300 O.2          1 FAD401   0.0000
    26 N3          -7.3040    45.5770    -2.3290 N.pl3        1 FAD401   0.0000
    27 C4          -6.8420    46.2160    -1.1900 C.2          1 FAD401   0.0000
    28 O4          -5.7130    45.9670    -0.7760 O.2          1 FAD401   0.0000
    29 C4X         -7.6610    47.1320    -0.5180 C.2          1 FAD401   0.0000
    30 N5          -7.2100    47.7780     0.6250 N.2          1 FAD401   0.0000
    31 C5X         -8.0140    48.7030     1.2630 C.ar         1 FAD401   0.0000
    32 C6          -7.5350    49.3540     2.3990 C.ar         1 FAD401   0.0000
    33 C7          -8.3230    50.2850     3.0640 C.ar         1 FAD401   0.0000
    34 C7M         -7.7540    50.9560     4.2840 C.3          1 FAD401   0.0000
    35 C8          -9.6080    50.5650     2.5810 C.ar         1 FAD401   0.0000
    36 C8M        -10.5190    51.5500     3.2390 C.3          1 FAD401   0.0000
    37 C9         -10.0830    49.9170     1.4460 C.ar         1 FAD401   0.0000
    38 C9A         -9.3000    48.9750     0.7780 C.ar         1 FAD401   0.0000
    39 N10         -9.7730    48.3120    -0.3570 N.pl3        1 FAD401   0.0000
    40 C10         -8.9440    47.4080    -1.0110 C.2          1 FAD401   0.0000
    41 C1'        -11.1940    48.4840    -0.8670 C.3          1 FAD401   0.0000
    42 C2'        -12.3260    47.9900     0.0490 C.3          1 FAD401   0.0000
    43 O2'        -12.4640    46.5850    -0.0120 O.3          1 FAD401   0.0000
    44 C3'        -13.6250    48.6770    -0.3860 C.3          1 FAD401   0.0000
    45 O3'        -13.6040    50.0000     0.1140 O.3          1 FAD401   0.0000
    46 C4'        -14.9100    47.9640     0.0590 C.3          1 FAD401   0.0000
    47 O4'        -15.0260    46.7010    -0.5680 O.3          1 FAD401   0.0000
    48 C5'        -16.1730    48.7610    -0.2730 C.3          1 FAD401   0.0000
    49 O5'        -16.1420    49.2220    -1.6080 O.3          1 FAD401   0.0000
    50 P          -16.3570    50.7850    -1.9030 P.3          1 FAD401   0.0000
    51 O1P        -15.3840    51.5940    -1.0860 O.co2        1 FAD401   0.0000
    52 O2P        -16.2280    51.0570    -3.3850 O.co2        1 FAD401  -1.0000
    53 O3P        -17.8470    51.0960    -1.3580 O.3          1 FAD401   0.0000
    54 H5B1       -20.7162    52.8416    -0.8487 H            1 FAD401   0.0000
    55 H5B2       -19.6004    52.2520     0.1877 H            1 FAD401   0.0000
    56 H4B        -21.7320    52.6139     1.2788 H            1 FAD401   0.0000
    57 H3B        -20.3353    50.1904     1.3897 H            1 FAD401   0.0000
    58 H5         -20.8659    52.0467     3.0088 H            1 FAD401   0.0000
    59 H2B        -22.1003    48.7507     1.3882 H            1 FAD401   0.0000
    60 H7         -22.5212    50.4591     3.4405 H            1 FAD401   0.0000
    61 H1B        -24.1145    50.6474     1.1928 H            1 FAD401   0.0000
    62 H8A        -22.5566    49.3146    -1.9616 H            1 FAD401   0.0000
    63 H6A1       -27.2953    45.4712    -2.1990 H            1 FAD401   0.0000
    64 H6A2       -25.9074    46.1211    -3.0062 H            1 FAD401   0.0000
    65 H2A        -27.5386    47.6561     1.7939 H            1 FAD401   0.0000
    66 H13         -6.7198    44.9186    -2.8036 H            1 FAD401   0.0000
    67 H14         -6.6167    49.1491     2.7379 H            1 FAD401   0.0000
    68 H7M1        -8.4260    51.5961     4.6563 H            1 FAD401   0.0000
    69 H7M2        -7.5346    50.2650     4.9727 H            1 FAD401   0.0000
    70 H7M3        -6.9231    51.4531     4.0340 H            1 FAD401   0.0000
    71 H8M1       -11.3810    51.5957     2.7342 H            1 FAD401   0.0000
    72 H8M2       -10.6984    51.2615     4.1795 H            1 FAD401   0.0000
    73 H8M3       -10.0872    52.4520     3.2436 H            1 FAD401   0.0000
    74 H21        -10.9984    50.1291     1.1039 H            1 FAD401   0.0000
    75 H1'1       -11.2668    47.9875    -1.7320 H            1 FAD401   0.0000
    76 H1'2       -11.3407    49.4598    -1.0294 H            1 FAD401   0.0000
    77 H2'        -12.1193    48.2546     0.9909 H            1 FAD401   0.0000
    78 H25        -13.3831    46.3539    -0.3313 H            1 FAD401   0.0000
    79 H3'        -13.6290    48.7249    -1.3848 H            1 FAD401   0.0000
    80 H27        -14.1201    50.5968    -0.5004 H            1 FAD401   0.0000
    81 H4'        -14.8714    47.8260     1.0487 H            1 FAD401   0.0000
    82 H29        -15.0517    46.8225    -1.5603 H            1 FAD401   0.0000
    83 H5'1       -16.2360    49.5461     0.3431 H            1 FAD401   0.0000
    84 H5'2       -16.9729    48.1740    -0.1478 H            1 FAD401   0.0000
@<TRIPOS>BOND
     1    1    2      ar
     2    1    3      ar
     3    1    4       1
     4    1   53       1
     5    4    5       1
     6    5    6       1
     7    6    7       1
     8    6    8       1
     9    7   12       1
    10    8    9       1
    11    8   10       1
    12   10   11       1
    13   10   12       1
    14   12   13       1
    15   13   14       1
    16   13   22       1
    17   14   15       2
    18   15   16       1
    19   16   17      ar
    20   16   22      ar
    21   17   18       1
    22   17   19      ar
    23   19   20      ar
    24   20   21      ar
    25   21   22      ar
    26   23   24       1
    27   23   40       2
    28   24   25       2
    29   24   26       1
    30   26   27       1
    31   27   28       2
    32   27   29       1
    33   29   30       2
    34   29   40       1
    35   30   31       1
    36   31   32      ar
    37   31   38      ar
    38   32   33      ar
    39   33   34       1
    40   33   35      ar
    41   35   36       1
    42   35   37      ar
    43   37   38      ar
    44   38   39       1
    45   39   40       1
    46   39   41       1
    47   41   42       1
    48   42   43       1
    49   42   44       1
    50   44   45       1
    51   44   46       1
    52   46   47       1
    53   46   48       1
    54   48   49       1
    55   49   50       1
    56   50   51      ar
    57   50   52      ar
    58   50   53       1
    59   48   84       1
    60    5   54       1
    61    5   55       1
    62    6   56       1
    63    8   57       1
    64    9   58       1
    65   10   59       1
    66   11   60       1
    67   12   61       1
    68   14   62       1
    69   18   63       1
    70   18   64       1
    71   20   65       1
    72   26   66       1
    73   32   67       1
    74   34   68       1
    75   34   69       1
    76   34   70       1
    77   36   71       1
    78   36   72       1
    79   36   73       1
    80   37   74       1
    81   41   75       1
    82   41   76       1
    83   42   77       1
    84   43   78       1
    85   44   79       1
    86   45   80       1
    87   46   81       1
    88   47   82       1
    89   48   83       1
@<TRIPOS>SUBSTRUCTURE
     1 FAD401      1 GROUP             4 B     FAD     0 **** FAD B 401
