@<TRIPOS>MOLECULE
3k31_NAD_1_ligand
   35    37     1     0     0
SMALL
NO_CHARGES


@<TRIPOS>ATOM
     1 PA          40.7520    22.4380    66.4780 P.3          1 NAD300   0.0000
     2 O1A         42.1340    22.5900    65.5280 O.co2        1 NAD300   0.0000
     3 O2A         40.5040    23.7440    67.1190 O.co2        1 NAD300  -1.0000
     4 O5B         39.4530    22.0050    65.5140 O.3          1 NAD300   0.0000
     5 C5B         38.1850    22.5620    65.7900 C.3          1 NAD300   0.0000
     6 C4B         37.2100    22.8180    64.6030 C.3          1 NAD300   0.0000
     7 O4B         35.8480    23.0390    65.0190 O.3          1 NAD300   0.0000
     8 C3B         37.4620    23.8850    63.5110 C.3          1 NAD300   0.0000
     9 O3B         37.5210    23.5340    62.1510 O.3          1 NAD300   0.0000
    10 C2B         36.5260    25.0060    63.8000 C.3          1 NAD300   0.0000
    11 O2B         35.9850    25.9130    62.9130 O.3          1 NAD300   0.0000
    12 C1B         35.3410    24.2790    64.4180 C.3          1 NAD300   0.0000
    13 N9A         34.3090    24.7540    65.2650 N.pl3        1 NAD300   0.0000
    14 C8A         34.4650    25.4240    66.4940 C.2          1 NAD300   0.0000
    15 N7A         33.1930    25.8810    66.8660 N.2          1 NAD300   0.0000
    16 C5A         32.2960    25.4780    65.8680 C.ar         1 NAD300   0.0000
    17 C6A         30.9000    25.6710    65.7180 C.ar         1 NAD300   0.0000
    18 N6A         30.2060    26.3820    66.7940 N.pl3        1 NAD300   0.0000
    19 N1A         30.2530    25.1420    64.5950 N.ar         1 NAD300   0.0000
    20 C2A         30.9740    24.4530    63.5540 C.ar         1 NAD300   0.0000
    21 N3A         32.3530    24.2840    63.6930 N.ar         1 NAD300   0.0000
    22 C4A         33.0020    24.8160    64.8430 C.ar         1 NAD300   0.0000
    23 O3          40.9090    21.2390    67.6250 O.co2        1 NAD300  -1.0000
    24 H5B1        38.3407    23.4420    66.2388 H            1 NAD300   0.0000
    25 H5B2        37.7221    21.9420    66.4235 H            1 NAD300   0.0000
    26 H4B         37.1842    21.9504    64.1064 H            1 NAD300   0.0000
    27 H3B         38.3690    24.2515    63.7184 H            1 NAD300   0.0000
    28 H5          37.8649    22.5991    62.0626 H            1 NAD300   0.0000
    29 H2B         36.9437    25.5419    64.5337 H            1 NAD300   0.0000
    30 H7          35.0865    26.2047    63.2410 H            1 NAD300   0.0000
    31 H1B         34.8392    23.9501    63.6180 H            1 NAD300   0.0000
    32 H8A         35.3171    25.5493    67.0022 H            1 NAD300   0.0000
    33 H6A1        29.2208    26.5423    66.7332 H            1 NAD300   0.0000
    34 H6A2        30.7173    26.7072    67.5895 H            1 NAD300   0.0000
    35 H2A         30.4960    24.1031    62.7484 H            1 NAD300   0.0000
@<TRIPOS>BOND
     1    1    2      ar
     2    1    3      ar
     3    1    4       1
     4    1   23      ar
     5    4    5       1
     6    5    6       1
     7    6    7       1
     8    6    8       1
     9    7   12       1
    10    8    9       1
    11    8   10       1
    12   10   11       1
    13   10   12       1
    14   12   13       1
    15   13   14       1
    16   13   22       1
    17   14   15       2
    18   15   16       1
    19   16   17      ar
    20   16   22      ar
    21   17   18       1
    22   17   19      ar
    23   19   20      ar
    24   20   21      ar
    25   21   22      ar
    26   20   35       1
    27    5   24       1
    28    5   25       1
    29    6   26       1
    30    8   27       1
    31    9   28       1
    32   10   29       1
    33   11   30       1
    34   12   31       1
    35   14   32       1
    36   18   33       1
    37   18   34       1
@<TRIPOS>SUBSTRUCTURE
     1 NAD300      1 GROUP             4 A     NAD     0 **** NAD A 300
