@<TRIPOS>MOLECULE
2rds_1PL_1_ligand
   38    40     1     0     0
SMALL
NO_CHARGES


@<TRIPOS>ATOM
     1 C10         10.1580    25.0430    -0.1490 C.3          1 1PL269   0.0000
     2 C9           9.9990    24.7830     1.3320 C.3          1 1PL269   0.0000
     3 C11          9.4030    23.3960     1.4760 C.3          1 1PL269   0.0000
     4 C12         10.6450    22.5040     1.5270 C.3          1 1PL269   0.0000
     5 C5          11.5940    23.2470     2.4640 C.3          1 1PL269   0.0000
     6 C4          11.3150    24.7310     2.1800 C.3          1 1PL269   0.0000
     7 C3          12.5840    25.3950     1.6160 C.3          1 1PL269   0.0000
     8 C2          13.4040    25.8440     2.8460 C.3          1 1PL269   0.0000
     9 C14         14.2270    27.0960     2.5270 C.3          1 1PL269   0.0000
    10 C15         14.3470    24.7530     3.3780 C.3          1 1PL269   0.0000
    11 C1          12.3380    26.1840     3.8940 C.3          1 1PL269   0.0000
    12 C8          11.0580    25.4020     3.5240 C.3          1 1PL269   0.0000
    13 C7          10.8410    24.2380     4.4980 C.2          1 1PL269   0.0000
    14 C6          11.1400    23.0770     3.9170 C.2          1 1PL269   0.0000
    15 C13         11.0280    21.7200     4.6190 C.2          1 1PL269   0.0000
    16 O1          10.6220    21.6950     5.8050 O.co2        1 1PL269   0.0000
    17 O2          11.3550    20.7080     3.9630 O.co2        1 1PL269  -1.0000
    18 H1          10.5502    25.9524    -0.2876 H            1 1PL269   0.0000
    19 H2          10.7652    24.3542    -0.5450 H            1 1PL269   0.0000
    20 H3           9.2637    24.9944    -0.5939 H            1 1PL269   0.0000
    21 H4           9.3744    25.4579     1.7249 H            1 1PL269   0.0000
    22 H5           8.8262    23.1675     0.6917 H            1 1PL269   0.0000
    23 H6           8.8678    23.3184     2.3172 H            1 1PL269   0.0000
    24 H7          11.0488    22.4044     0.6176 H            1 1PL269   0.0000
    25 H8          10.4194    21.6009     1.8923 H            1 1PL269   0.0000
    26 H9          12.5524    22.9979     2.3244 H            1 1PL269   0.0000
    27 H10         12.3428    26.1841     1.0510 H            1 1PL269   0.0000
    28 H11         13.1061    24.7406     1.0691 H            1 1PL269   0.0000
    29 H12         14.7482    27.3674     3.3361 H            1 1PL269   0.0000
    30 H13         14.8566    26.8985     1.7756 H            1 1PL269   0.0000
    31 H14         13.6134    27.8394     2.2610 H            1 1PL269   0.0000
    32 H15         14.8476    25.1023     4.1701 H            1 1PL269   0.0000
    33 H16         13.8119    23.9526     3.6483 H            1 1PL269   0.0000
    34 H17         14.9951    24.4943     2.6617 H            1 1PL269   0.0000
    35 H18         12.1523    27.1666     3.8859 H            1 1PL269   0.0000
    36 H19         12.6537    25.9119     4.8030 H            1 1PL269   0.0000
    37 H20         10.2594    26.0027     3.4870 H            1 1PL269   0.0000
    38 H21         10.5193    24.3367     5.4397 H            1 1PL269   0.0000
@<TRIPOS>BOND
     1    1    2       1
     2    2    3       1
     3    2    6       1
     4    3    4       1
     5    4    5       1
     6    5    6       1
     7    5   14       1
     8    6    7       1
     9    6   12       1
    10    7    8       1
    11    8    9       1
    12    8   10       1
    13    8   11       1
    14   11   12       1
    15   12   13       1
    16   13   14       2
    17   14   15       1
    18   15   16      ar
    19   15   17      ar
    20    1   18       1
    21    1   19       1
    22    1   20       1
    23    2   21       1
    24    3   22       1
    25    3   23       1
    26    4   24       1
    27    4   25       1
    28    5   26       1
    29    7   27       1
    30    7   28       1
    31    9   29       1
    32    9   30       1
    33    9   31       1
    34   10   32       1
    35   10   33       1
    36   10   34       1
    37   11   35       1
    38   11   36       1
    39   12   37       1
    40   13   38       1
@<TRIPOS>SUBSTRUCTURE
     1 1PL269      1 GROUP             4 A     1PL     0 **** 1PL A 269
