@<TRIPOS>MOLECULE
1csn_ATP_1_ligand
   43    45     1     0     0
SMALL
NO_CHARGES


@<TRIPOS>ATOM
     1 PG         -20.3880    44.1110    54.6140 P.3          1 ATP299   0.0000
     2 O1G        -19.2750    45.0130    54.1870 O.co2        1 ATP299   0.0000
     3 O2G        -20.3790    43.5790    55.9850 O.co2        1 ATP299  -1.0000
     4 O3G        -20.7910    43.2250    53.4930 O.co2        1 ATP299  -1.0000
     5 PB         -22.7300    45.7160    55.6090 P.3          1 ATP299   0.0000
     6 O1B        -23.5850    44.6010    56.1210 O.co2        1 ATP299   0.0000
     7 O2B        -22.1050    46.6390    56.5730 O.co2        1 ATP299  -1.0000
     8 O3B        -21.6170    45.1630    54.5230 O.3          1 ATP299   0.0000
     9 PA         -22.8280    47.8220    53.7620 P.3          1 ATP299   0.0000
    10 O1A        -23.0320    49.0100    54.5910 O.co2        1 ATP299   0.0000
    11 O2A        -21.4370    47.5110    53.2660 O.co2        1 ATP299  -1.0000
    12 O3A        -23.4690    46.5450    54.4450 O.3          1 ATP299   0.0000
    13 O5'        -23.6300    47.8870    52.4100 O.3          1 ATP299   0.0000
    14 C5'        -23.7120    46.8170    51.4930 C.3          1 ATP299   0.0000
    15 C4'        -23.9750    47.2950    50.0600 C.3          1 ATP299   0.0000
    16 O4'        -25.1220    48.1490    49.8950 O.3          1 ATP299   0.0000
    17 C3'        -22.8690    48.2060    49.6650 C.3          1 ATP299   0.0000
    18 O3'        -21.7000    47.4020    49.4310 O.3          1 ATP299   0.0000
    19 C2'        -23.4730    48.8330    48.4140 C.3          1 ATP299   0.0000
    20 O2'        -23.6280    47.8320    47.4100 O.3          1 ATP299   0.0000
    21 C1'        -24.8590    49.2000    48.9370 C.3          1 ATP299   0.0000
    22 N9         -24.9390    50.5210    49.6590 N.pl3        1 ATP299   0.0000
    23 C8         -24.6050    50.8170    50.9640 C.2          1 ATP299   0.0000
    24 N7         -24.8540    52.0370    51.3330 N.2          1 ATP299   0.0000
    25 C5         -25.3910    52.6080    50.2030 C.ar         1 ATP299   0.0000
    26 C6         -25.8480    53.8880    49.9560 C.ar         1 ATP299   0.0000
    27 N6         -25.6900    54.8480    50.8650 N.pl3        1 ATP299   0.0000
    28 N1         -26.3360    54.1370    48.7220 N.ar         1 ATP299   0.0000
    29 C2         -26.3520    53.1860    47.7990 C.ar         1 ATP299   0.0000
    30 N3         -25.9260    51.9510    47.9350 N.ar         1 ATP299   0.0000
    31 C4         -25.4540    51.7160    49.1730 C.ar         1 ATP299   0.0000
    32 H5'1       -24.4575    46.2116    51.7716 H            1 ATP299   0.0000
    33 H5'2       -22.8488    46.3125    51.5100 H            1 ATP299   0.0000
    34 H4'        -24.0263    46.5158    49.4353 H            1 ATP299   0.0000
    35 H3'        -22.6990    48.8953    50.3692 H            1 ATP299   0.0000
    36 H5         -20.9381    47.9916    49.1628 H            1 ATP299   0.0000
    37 H2'        -22.9580    49.6275    48.0921 H            1 ATP299   0.0000
    38 H7         -24.0243    48.2423    46.5886 H            1 ATP299   0.0000
    39 H1'        -25.5290    49.1689    48.1953 H            1 ATP299   0.0000
    40 H9         -24.2007    50.1417    51.5809 H            1 ATP299   0.0000
    41 H10        -26.0234    55.7723    50.6792 H            1 ATP299   0.0000
    42 H11        -25.2379    54.6447    51.7335 H            1 ATP299   0.0000
    43 H12        -26.7275    53.4346    46.9061 H            1 ATP299   0.0000
@<TRIPOS>BOND
     1    1    2      ar
     2    1    3      ar
     3    1    4      ar
     4    1    8       1
     5    5    6      ar
     6    5    7      ar
     7    5    8       1
     8    5   12       1
     9    9   10      ar
    10    9   11      ar
    11    9   12       1
    12    9   13       1
    13   13   14       1
    14   14   15       1
    15   15   16       1
    16   15   17       1
    17   16   21       1
    18   17   18       1
    19   17   19       1
    20   19   20       1
    21   19   21       1
    22   21   22       1
    23   22   23       1
    24   22   31       1
    25   23   24       2
    26   24   25       1
    27   25   26      ar
    28   25   31      ar
    29   26   27       1
    30   26   28      ar
    31   28   29      ar
    32   29   30      ar
    33   30   31      ar
    34   29   43       1
    35   27   42       1
    36   27   41       1
    37   23   40       1
    38   14   32       1
    39   14   33       1
    40   15   34       1
    41   17   35       1
    42   18   36       1
    43   19   37       1
    44   20   38       1
    45   21   39       1
@<TRIPOS>SUBSTRUCTURE
     1 ATP299      1 GROUP             4 A     ATP     0 **** ATP A 299
