@<TRIPOS>MOLECULE
2buy_CAQ_2_ligand
   14    14     1     0     0
SMALL
NO_CHARGES


@<TRIPOS>ATOM
     1 C1          -7.1990   -28.7460    51.9900 C.ar         1 CAQ1543   0.0000
     2 C2          -6.8890   -30.0030    52.4710 C.ar         1 CAQ1543   0.0000
     3 C3          -7.4370   -31.1250    51.8820 C.ar         1 CAQ1543   0.0000
     4 O3          -7.1250   -32.3800    52.3650 O.3          1 CAQ1543   0.0000
     5 C4          -8.2980   -30.9900    50.8100 C.ar         1 CAQ1543   0.0000
     6 O4          -8.8460   -32.1110    50.2220 O.3          1 CAQ1543   0.0000
     7 C5          -8.6080   -29.7330    50.3300 C.ar         1 CAQ1543   0.0000
     8 C6          -8.0580   -28.6130    50.9190 C.ar         1 CAQ1543   0.0000
     9 H1          -6.8015   -27.9340    52.4173 H            1 CAQ1543   0.0000
    10 H2          -6.2664   -30.1006    53.2474 H            1 CAQ1543   0.0000
    11 H3          -6.5022   -32.4763    53.1414 H            1 CAQ1543   0.0000
    12 H4          -8.6200   -33.0202    50.5717 H            1 CAQ1543   0.0000
    13 H5          -9.2318   -29.6343    49.5547 H            1 CAQ1543   0.0000
    14 H6          -8.2825   -27.7036    50.5689 H            1 CAQ1543   0.0000
@<TRIPOS>BOND
     1    1    2      ar
     2    1    8      ar
     3    2    3      ar
     4    3    4       1
     5    3    5      ar
     6    5    6       1
     7    5    7      ar
     8    7    8      ar
     9    1    9       1
    10    2   10       1
    11    4   11       1
    12    6   12       1
    13    7   13       1
    14    8   14       1
@<TRIPOS>SUBSTRUCTURE
     1 CAQ1543     1 GROUP             4 B     CAQ     0 **** CAQ B1543
