@<TRIPOS>MOLECULE
4l78_ADP_1_ligand
   39    41     1     0     0
SMALL
NO_CHARGES


@<TRIPOS>ATOM
     1 PB         -24.3100    38.4400    12.9160 P.3          1 ADP1301   0.0000
     2 O1B        -23.9370    39.7580    13.5800 O.co2        1 ADP1301   0.0000
     3 O2B        -23.0720    37.5040    12.8630 O.co2        1 ADP1301  -1.0000
     4 O3B        -25.5820    37.8140    13.4910 O.co2        1 ADP1301  -1.0000
     5 PA         -26.0250    38.9510    10.5910 P.3          1 ADP1301   0.0000
     6 O1A        -26.5120    40.3640    10.9340 O.co2        1 ADP1301   0.0000
     7 O2A        -26.8230    37.6730    10.8820 O.co2        1 ADP1301  -1.0000
     8 O3A        -24.5470    38.7980    11.3280 O.3          1 ADP1301   0.0000
     9 O5'        -25.5460    38.9520     9.0870 O.3          1 ADP1301   0.0000
    10 C5'        -25.3450    37.7120     8.3680 C.3          1 ADP1301   0.0000
    11 C4'        -24.3760    38.0460     7.2300 C.3          1 ADP1301   0.0000
    12 O4'        -24.9280    39.0360     6.3360 O.3          1 ADP1301   0.0000
    13 C3'        -23.0480    38.5960     7.7610 C.3          1 ADP1301   0.0000
    14 O3'        -21.9530    37.9990     6.9520 O.3          1 ADP1301   0.0000
    15 C2'        -23.1890    40.0920     7.5310 C.3          1 ADP1301   0.0000
    16 O2'        -21.9140    40.7400     7.3270 O.3          1 ADP1301   0.0000
    17 C1'        -24.0470    40.1670     6.2530 C.3          1 ADP1301   0.0000
    18 N9         -24.8840    41.3810     6.3150 N.pl3        1 ADP1301   0.0000
    19 C8         -25.8330    41.6320     7.2220 C.2          1 ADP1301   0.0000
    20 N7         -26.4090    42.7990     6.9570 N.2          1 ADP1301   0.0000
    21 C5         -25.8150    43.3060     5.8730 C.ar         1 ADP1301   0.0000
    22 C6         -25.9200    44.5530     5.1110 C.ar         1 ADP1301   0.0000
    23 N6         -26.7580    45.5630     5.4580 N.pl3        1 ADP1301   0.0000
    24 N1         -25.1070    44.6370     4.0370 N.ar         1 ADP1301   0.0000
    25 C2         -24.1880    43.7290     3.6830 C.ar         1 ADP1301   0.0000
    26 N3         -24.0190    42.5840     4.3680 N.ar         1 ADP1301   0.0000
    27 C4         -24.8010    42.3690     5.4580 C.ar         1 ADP1301   0.0000
    28 H5'1       -26.2127    37.3774     8.0003 H            1 ADP1301   0.0000
    29 H5'2       -24.9493    37.0194     8.9710 H            1 ADP1301   0.0000
    30 H4'        -24.1924    37.2117     6.7102 H            1 ADP1301   0.0000
    31 H3'        -22.9337    38.3889     8.7326 H            1 ADP1301   0.0000
    32 H5         -21.3417    37.4803     7.5497 H            1 ADP1301   0.0000
    33 H2'        -23.6728    40.5151     8.2971 H            1 ADP1301   0.0000
    34 H7         -21.6923    40.7400     6.3519 H            1 ADP1301   0.0000
    35 H1'        -23.4861    40.1427     5.4255 H            1 ADP1301   0.0000
    36 H9         -26.0731    41.0318     7.9849 H            1 ADP1301   0.0000
    37 H10        -26.7936    46.3955     4.9051 H            1 ADP1301   0.0000
    38 H11        -27.3398    45.4745     6.2665 H            1 ADP1301   0.0000
    39 H12        -23.6108    43.9077     2.8862 H            1 ADP1301   0.0000
@<TRIPOS>BOND
     1    1    2      ar
     2    1    3      ar
     3    1    4      ar
     4    1    8       1
     5    5    6      ar
     6    5    7      ar
     7    5    8       1
     8    5    9       1
     9    9   10       1
    10   10   11       1
    11   11   12       1
    12   11   13       1
    13   12   17       1
    14   13   14       1
    15   13   15       1
    16   15   16       1
    17   15   17       1
    18   17   18       1
    19   18   19       1
    20   18   27       1
    21   19   20       2
    22   20   21       1
    23   21   22      ar
    24   21   27      ar
    25   22   23       1
    26   22   24      ar
    27   24   25      ar
    28   25   26      ar
    29   26   27      ar
    30   25   39       1
    31   23   38       1
    32   23   37       1
    33   10   28       1
    34   10   29       1
    35   11   30       1
    36   13   31       1
    37   14   32       1
    38   15   33       1
    39   16   34       1
    40   17   35       1
    41   19   36       1
@<TRIPOS>SUBSTRUCTURE
     1 ADP1301     1 GROUP             4 A     ADP     0 **** ADP A1301
