@<TRIPOS>MOLECULE
1p0n_FMN_1_ligand
   50    52     1     0     0
SMALL
NO_CHARGES


@<TRIPOS>ATOM
     1 N1          34.1410    -9.4180    15.0760 N.2          1 FMN669   0.0000
     2 C2          34.9970   -10.0640    15.9590 C.2          1 FMN669   0.0000
     3 O2          34.8390   -10.0700    17.1860 O.2          1 FMN669   0.0000
     4 N3          36.1470   -10.7610    15.3920 N.pl3        1 FMN669   0.0000
     5 C4          36.4570   -10.8480    14.0560 C.2          1 FMN669   0.0000
     6 O4          37.4710   -11.4800    13.7080 O.2          1 FMN669   0.0000
     7 C4A         35.5310   -10.1420    13.1080 C.2          1 FMN669   0.0000
     8 N5          35.7310   -10.1620    11.7590 N.2          1 FMN669   0.0000
     9 C5A         34.8470    -9.5090    10.9000 C.ar         1 FMN669   0.0000
    10 C6          35.0840    -9.5310     9.4300 C.ar         1 FMN669   0.0000
    11 C7          34.2490    -8.9050     8.4920 C.ar         1 FMN669   0.0000
    12 C7M         34.5810    -8.9840     6.9790 C.3          1 FMN669   0.0000
    13 C8          33.0180    -8.1490     8.9660 C.ar         1 FMN669   0.0000
    14 C8M         32.0730    -7.4530     8.0130 C.3          1 FMN669   0.0000
    15 C9          32.7670    -8.1150    10.3690 C.ar         1 FMN669   0.0000
    16 C9A         33.6300    -8.7620    11.3770 C.ar         1 FMN669   0.0000
    17 N10         33.4350    -8.7660    12.8580 N.pl3        1 FMN669   0.0000
    18 C10         34.3370    -9.4380    13.7380 C.2          1 FMN669   0.0000
    19 C1'         32.2540    -8.0700    13.4960 C.3          1 FMN669   0.0000
    20 C2'         32.4120    -6.5550    13.5510 C.3          1 FMN669   0.0000
    21 O2'         33.5950    -6.1740    14.2430 O.3          1 FMN669   0.0000
    22 C3'         31.1550    -5.8070    14.2290 C.3          1 FMN669   0.0000
    23 O3'         30.8110    -6.3550    15.5750 O.3          1 FMN669   0.0000
    24 C4'         29.8490    -5.8110    13.3600 C.3          1 FMN669   0.0000
    25 O4'         29.2900    -7.1430    13.1850 O.3          1 FMN669   0.0000
    26 C5'         29.9940    -5.2900    11.9390 C.3          1 FMN669   0.0000
    27 O5'         30.3520    -3.8970    11.9080 O.3          1 FMN669   0.0000
    28 P           29.4470    -2.7090    12.4350 P.3          1 FMN669   0.0000
    29 O1P         29.7930    -2.5300    13.8930 O.co2        1 FMN669   0.0000
    30 O2P         27.9870    -3.0430    12.2070 O.co2        1 FMN669  -1.0000
    31 O3P         29.9800    -1.4890    11.5930 O.co2        1 FMN669  -1.0000
    32 H1          36.7649   -11.2161    16.0332 H            1 FMN669   0.0000
    33 H2          35.8867   -10.0215     9.0908 H            1 FMN669   0.0000
    34 H7M1        33.8865    -8.4868     6.4589 H            1 FMN669   0.0000
    35 H7M2        35.4783    -8.5750     6.8128 H            1 FMN669   0.0000
    36 H7M3        34.5923    -9.9412     6.6897 H            1 FMN669   0.0000
    37 H8M1        31.3353    -7.0206     8.5315 H            1 FMN669   0.0000
    38 H8M2        32.5721    -6.7557     7.4986 H            1 FMN669   0.0000
    39 H8M3        31.6865    -8.1224     7.3786 H            1 FMN669   0.0000
    40 H9          31.9575    -7.6232    10.6897 H            1 FMN669   0.0000
    41 H1'1        32.1483    -8.4132    14.4293 H            1 FMN669   0.0000
    42 H1'2        31.4334    -8.2855    12.9667 H            1 FMN669   0.0000
    43 H2'         32.4908    -6.2240    12.6107 H            1 FMN669   0.0000
    44 H13         33.6652    -5.1766    14.2591 H            1 FMN669   0.0000
    45 H3'         31.4178    -4.8510    14.3596 H            1 FMN669   0.0000
    46 H15         30.4155    -5.6300    16.1389 H            1 FMN669   0.0000
    47 H4'         29.1662    -5.2487    13.8266 H            1 FMN669   0.0000
    48 H17         28.4628    -7.0865    12.6259 H            1 FMN669   0.0000
    49 H5'1        29.1239    -5.4102    11.4610 H            1 FMN669   0.0000
    50 H5'2        30.7055    -5.8164    11.4735 H            1 FMN669   0.0000
@<TRIPOS>BOND
     1    1    2       1
     2    1   18       2
     3    2    3       2
     4    2    4       1
     5    4    5       1
     6    5    6       2
     7    5    7       1
     8    7    8       2
     9    7   18       1
    10    8    9       1
    11    9   10      ar
    12    9   16      ar
    13   10   11      ar
    14   11   12       1
    15   11   13      ar
    16   13   14       1
    17   13   15      ar
    18   15   16      ar
    19   16   17       1
    20   17   18       1
    21   17   19       1
    22   19   20       1
    23   20   21       1
    24   20   22       1
    25   22   23       1
    26   22   24       1
    27   24   25       1
    28   24   26       1
    29   26   27       1
    30   27   28       1
    31   28   29      ar
    32   28   30      ar
    33   28   31      ar
    34    4   32       1
    35   10   33       1
    36   12   34       1
    37   12   35       1
    38   12   36       1
    39   14   37       1
    40   14   38       1
    41   14   39       1
    42   15   40       1
    43   19   41       1
    44   19   42       1
    45   20   43       1
    46   21   44       1
    47   22   45       1
    48   23   46       1
    49   24   47       1
    50   25   48       1
    51   26   49       1
    52   26   50       1
@<TRIPOS>SUBSTRUCTURE
     1 FMN669      1 GROUP             4 A     FMN     0 **** FMN A 669
