@<TRIPOS>MOLECULE
2dpx_GDP_1_ligand
   40    42     1     0     0
SMALL
NO_CHARGES


@<TRIPOS>ATOM
     1 PB          15.4780     7.0930    24.1470 P.3          1 GDP500   0.0000
     2 O1B         14.2360     7.8460    24.1160 O.co2        1 GDP500   0.0000
     3 O2B         15.8300     6.5980    22.7440 O.co2        1 GDP500  -1.0000
     4 O3B         16.5870     7.8510    24.7130 O.co2        1 GDP500  -1.0000
     5 O3A         15.2370     5.7480    25.0100 O.3          1 GDP500   0.0000
     6 PA          15.4270     5.6020    26.6000 P.3          1 GDP500   0.0000
     7 O1A         16.8500     5.3550    26.9470 O.co2        1 GDP500   0.0000
     8 O2A         14.8630     6.8280    27.3260 O.co2        1 GDP500  -1.0000
     9 O5'         14.6190     4.3080    26.9910 O.3          1 GDP500   0.0000
    10 C5'         13.2840     4.1660    26.5450 C.3          1 GDP500   0.0000
    11 C4'         12.6030     3.0050    27.2770 C.3          1 GDP500   0.0000
    12 O4'         13.0950     1.7440    26.7910 O.3          1 GDP500   0.0000
    13 C3'         12.8580     2.9890    28.7850 C.3          1 GDP500   0.0000
    14 O3'         11.6080     2.5440    29.3460 O.3          1 GDP500   0.0000
    15 C2'         14.0430     2.0600    28.9600 C.3          1 GDP500   0.0000
    16 O2'         14.0380     1.4630    30.2580 O.3          1 GDP500   0.0000
    17 C1'         13.7400     1.0320    27.8940 C.3          1 GDP500   0.0000
    18 N9          14.9210     0.3770    27.3260 N.pl3        1 GDP500   0.0000
    19 C8          15.9650     0.9720    26.6570 C.2          1 GDP500   0.0000
    20 N7          16.8470     0.0120    26.2400 N.2          1 GDP500   0.0000
    21 C5          16.3440    -1.1820    26.6550 C.2          1 GDP500   0.0000
    22 C6          16.7530    -2.5850    26.5400 C.2          1 GDP500   0.0000
    23 O6          17.7970    -2.8640    25.9340 O.2          1 GDP500   0.0000
    24 N1          15.9560    -3.5570    27.1180 N.pl3        1 GDP500   0.0000
    25 C2          14.7920    -3.2210    27.7940 C.2          1 GDP500   0.0000
    26 N2          14.0300    -4.1570    28.3630 N.pl3        1 GDP500   0.0000
    27 N3          14.3800    -1.9290    27.9030 N.2          1 GDP500   0.0000
    28 C4          15.1080    -0.9150    27.3620 C.2          1 GDP500   0.0000
    29 H5'1        13.2817     3.9835    25.5618 H            1 GDP500   0.0000
    30 H5'2        12.7827     5.0116    26.7282 H            1 GDP500   0.0000
    31 H4'         11.6174     3.0529    27.1151 H            1 GDP500   0.0000
    32 H3'         13.0815     3.9072    29.1121 H            1 GDP500   0.0000
    33 H5          11.7822     2.0480    30.1967 H            1 GDP500   0.0000
    34 H2'         14.9062     2.5310    28.7781 H            1 GDP500   0.0000
    35 H7          13.6089     2.0876    30.9105 H            1 GDP500   0.0000
    36 H1'         13.1157     0.3418    28.2598 H            1 GDP500   0.0000
    37 H9          16.0644     1.9545    26.4995 H            1 GDP500   0.0000
    38 H10         16.2234    -4.5180    27.0473 H            1 GDP500   0.0000
    39 H11         13.1943    -3.8958    28.8461 H            1 GDP500   0.0000
    40 H12         14.2946    -5.1197    28.3063 H            1 GDP500   0.0000
@<TRIPOS>BOND
     1    1    2      ar
     2    1    3      ar
     3    1    4      ar
     4    1    5       1
     5    5    6       1
     6    6    7      ar
     7    6    8      ar
     8    6    9       1
     9    9   10       1
    10   10   11       1
    11   11   12       1
    12   11   13       1
    13   12   17       1
    14   13   14       1
    15   13   15       1
    16   15   16       1
    17   15   17       1
    18   17   18       1
    19   18   19       1
    20   18   28       1
    21   19   20       2
    22   20   21       1
    23   21   22       1
    24   21   28       2
    25   22   23       2
    26   22   24       1
    27   24   25       1
    28   25   26       1
    29   25   27       2
    30   27   28       1
    31   26   40       1
    32   26   39       1
    33   24   38       1
    34   10   29       1
    35   10   30       1
    36   11   31       1
    37   13   32       1
    38   14   33       1
    39   15   34       1
    40   16   35       1
    41   17   36       1
    42   19   37       1
@<TRIPOS>SUBSTRUCTURE
     1 GDP500      1 GROUP             4 A     GDP     0 **** GDP A 500
