@<TRIPOS>MOLECULE
1vp5_NAP_2_ligand
   73    77     1     0     0
SMALL
NO_CHARGES


@<TRIPOS>ATOM
     1 PA          68.7180    17.4700   -34.8320 P.3          1 NAP300   0.0000
     2 O1A         68.0980    18.2480   -33.7280 O.co2        1 NAP300   0.0000
     3 O2A         69.7920    16.5210   -34.5020 O.co2        1 NAP300  -1.0000
     4 O5B         67.4910    16.6300   -35.4930 O.3          1 NAP300   0.0000
     5 C5B         66.3240    17.2240   -36.0300 C.3          1 NAP300   0.0000
     6 C4B         65.4700    16.0880   -36.6270 C.3          1 NAP300   0.0000
     7 O4B         65.0960    15.1180   -35.6540 O.3          1 NAP300   0.0000
     8 C3B         64.1790    16.5760   -37.2740 C.3          1 NAP300   0.0000
     9 O3B         63.9770    15.9620   -38.5300 O.3          1 NAP300   0.0000
    10 C2B         63.1050    16.1980   -36.2700 C.3          1 NAP300   0.0000
    11 O2B         61.8460    15.9270   -36.8210 O.3          1 NAP300   0.0000
    12 C1B         63.6760    14.9630   -35.6420 C.3          1 NAP300   0.0000
    13 N9A         63.1880    14.7910   -34.2650 N.pl3        1 NAP300   0.0000
    14 C8A         63.1710    15.7610   -33.2890 C.2          1 NAP300   0.0000
    15 N7A         62.7020    15.2190   -32.1700 N.2          1 NAP300   0.0000
    16 C5A         62.4380    13.9210   -32.4140 C.ar         1 NAP300   0.0000
    17 C6A         61.9230    12.9420   -31.5890 C.ar         1 NAP300   0.0000
    18 N6A         61.9620    13.2010   -30.2890 N.pl3        1 NAP300   0.0000
    19 N1A         61.7300    11.6590   -32.0920 N.ar         1 NAP300   0.0000
    20 C2A         62.0520    11.3730   -33.4170 C.ar         1 NAP300   0.0000
    21 N3A         62.5450    12.3560   -34.2530 N.ar         1 NAP300   0.0000
    22 C4A         62.7360    13.6150   -33.7340 C.ar         1 NAP300   0.0000
    23 O3          69.2330    18.3940   -36.0310 O.3          1 NAP300   0.0000
    24 PN          69.3610    20.0140   -36.1410 P.3          1 NAP300   0.0000
    25 O1N         68.0420    20.7180   -36.1680 O.co2        1 NAP300   0.0000
    26 O2N         70.2420    20.1660   -37.3020 O.co2        1 NAP300  -1.0000
    27 O5D         70.2410    20.3330   -34.8000 O.3          1 NAP300   0.0000
    28 C5D         69.6580    20.9770   -33.6670 C.3          1 NAP300   0.0000
    29 C4D         69.8910    22.4910   -33.7570 C.3          1 NAP300   0.0000
    30 O4D         71.3070    22.7760   -33.8270 O.3          1 NAP300   0.0000
    31 C3D         69.3170    23.1880   -34.9780 C.3          1 NAP300   0.0000
    32 O3D         67.9160    23.3900   -34.9710 O.3          1 NAP300   0.0000
    33 C2D         70.1480    24.4630   -34.9380 C.3          1 NAP300   0.0000
    34 O2D         69.5660    25.3400   -33.9730 O.3          1 NAP300   0.0000
    35 C1D         71.5610    23.9610   -34.5600 C.3          1 NAP300   0.0000
    36 N1N         72.5020    23.7220   -35.7070 N.ar         1 NAP300   1.0000
    37 C2N         73.6880    24.4240   -35.6800 C.ar         1 NAP300   0.0000
    38 C3N         74.6410    24.2750   -36.7050 C.ar         1 NAP300   0.0000
    39 C7N         75.9050    25.0430   -36.5350 C.2          1 NAP300   0.0000
    40 O7N         76.8580    25.0690   -37.5750 O.2          1 NAP300   0.0000
    41 N7N         76.0800    25.7100   -35.3840 N.am         1 NAP300   0.0000
    42 C4N         74.3990    23.4090   -37.7980 C.ar         1 NAP300   0.0000
    43 C5N         73.1720    22.6870   -37.8010 C.ar         1 NAP300   0.0000
    44 C6N         72.2450    22.8540   -36.7800 C.ar         1 NAP300   0.0000
    45 P2B         60.6320    16.9870   -36.8960 P.3          1 NAP300   0.0000
    46 O1X         59.9310    16.8800   -38.2470 O.co2        1 NAP300   0.0000
    47 O2X         61.0390    18.4510   -36.8990 O.co2        1 NAP300  -1.0000
    48 O3X         59.8330    16.6060   -35.6530 O.co2        1 NAP300  -1.0000
    49 H5B1        66.5703    17.8794   -36.7440 H            1 NAP300   0.0000
    50 H5B2        65.8147    17.6929   -35.3084 H            1 NAP300   0.0000
    51 H4B         66.0137    15.6283   -37.3292 H            1 NAP300   0.0000
    52 H3B         64.2079    17.5697   -37.3824 H            1 NAP300   0.0000
    53 H5          63.1256    16.2984   -38.9324 H            1 NAP300   0.0000
    54 H2B         63.0219    16.9175   -35.5805 H            1 NAP300   0.0000
    55 H1B         63.4232    14.1640   -36.1876 H            1 NAP300   0.0000
    56 H8A         63.4618    16.7110   -33.4024 H            1 NAP300   0.0000
    57 H6A1        61.6051    12.5337   -29.6353 H            1 NAP300   0.0000
    58 H6A2        62.3483    14.0636   -29.9624 H            1 NAP300   0.0000
    59 H2A         61.9247    10.4450   -33.7670 H            1 NAP300   0.0000
    60 H5D1        70.0791    20.6249   -32.8311 H            1 NAP300   0.0000
    61 H5D2        68.6754    20.7923   -33.6486 H            1 NAP300   0.0000
    62 H4D         69.5171    22.9225   -32.9360 H            1 NAP300   0.0000
    63 H3D         69.5644    22.6662   -35.7944 H            1 NAP300   0.0000
    64 H16         67.4635    22.6021   -35.3887 H            1 NAP300   0.0000
    65 H2D         70.1625    24.8972   -35.8387 H            1 NAP300   0.0000
    66 H18         70.2798    25.9124   -33.5694 H            1 NAP300   0.0000
    67 H1D         71.9784    24.6291   -33.9440 H            1 NAP300   0.0000
    68 H2N         73.8740    25.0482   -34.9212 H            1 NAP300   0.0000
    69 H7N1        76.9165    26.2370   -35.2337 H            1 NAP300   0.0000
    70 H7N2        75.3740    25.6801   -34.6765 H            1 NAP300   0.0000
    71 H4N         75.0634    23.3083   -38.5386 H            1 NAP300   0.0000
    72 H5N         72.9750    22.0516   -38.5476 H            1 NAP300   0.0000
    73 H6N         71.3825    22.3488   -36.8097 H            1 NAP300   0.0000
@<TRIPOS>BOND
     1    1    2      ar
     2    1    3      ar
     3    1    4       1
     4    1   23       1
     5    4    5       1
     6    5    6       1
     7    6    7       1
     8    6    8       1
     9    7   12       1
    10    8    9       1
    11    8   10       1
    12   10   11       1
    13   10   12       1
    14   11   45       1
    15   12   13       1
    16   13   14       1
    17   13   22       1
    18   14   15       2
    19   15   16       1
    20   16   17      ar
    21   16   22      ar
    22   17   18       1
    23   17   19      ar
    24   19   20      ar
    25   20   21      ar
    26   21   22      ar
    27   23   24       1
    28   24   25      ar
    29   24   26      ar
    30   24   27       1
    31   27   28       1
    32   28   29       1
    33   29   30       1
    34   29   31       1
    35   30   35       1
    36   31   32       1
    37   31   33       1
    38   33   34       1
    39   33   35       1
    40   35   36       1
    41   36   37      ar
    42   36   44      ar
    43   37   38      ar
    44   38   39       1
    45   38   42      ar
    46   39   40       2
    47   39   41      am
    48   42   43      ar
    49   43   44      ar
    50   45   46      ar
    51   45   47      ar
    52   45   48      ar
    53   43   72       1
    54    5   49       1
    55    5   50       1
    56    6   51       1
    57    8   52       1
    58    9   53       1
    59   10   54       1
    60   12   55       1
    61   14   56       1
    62   18   57       1
    63   18   58       1
    64   20   59       1
    65   44   73       1
    66   28   60       1
    67   28   61       1
    68   29   62       1
    69   31   63       1
    70   32   64       1
    71   33   65       1
    72   34   66       1
    73   35   67       1
    74   37   68       1
    75   41   69       1
    76   41   70       1
    77   42   71       1
@<TRIPOS>SUBSTRUCTURE
     1 NAP300      1 GROUP             4 B     NAP     0 **** NAP B 300
