@<TRIPOS>MOLECULE
4z17_PEP_2_ligand
   12    11     1     0     0
SMALL
NO_CHARGES


@<TRIPOS>ATOM
     1 C1         166.1300    46.4790     1.1340 C.2          1 PEP502   0.0000
     2 O1         165.4340    45.7530     0.3900 O.co2        1 PEP502   0.0000
     3 O2'        165.7900    47.6540     1.4170 O.co2        1 PEP502  -1.0000
     4 C2         167.3700    45.9240     1.6840 C.2          1 PEP502   0.0000
     5 C3         168.5200    46.5630     1.5340 C.2          1 PEP502   0.0000
     6 O2         167.3400    44.6430     2.3840 O.3          1 PEP502   0.0000
     7 P          167.4400    44.5360     3.9950 P.3          1 PEP502   0.0000
     8 O1P        166.9770    43.1320     4.2950 O.co2        1 PEP502   0.0000
     9 O2P        166.5030    45.6030     4.5040 O.co2        1 PEP502  -1.0000
    10 O3P        168.8970    44.8020     4.3060 O.co2        1 PEP502  -1.0000
    11 H1         169.3604    46.1757     1.9131 H            1 PEP502   0.0000
    12 H2         168.5481    47.4329     1.0416 H            1 PEP502   0.0000
@<TRIPOS>BOND
     1    1    2      ar
     2    1    3      ar
     3    1    4       1
     4    4    5       2
     5    4    6       1
     6    6    7       1
     7    7    8      ar
     8    7    9      ar
     9    7   10      ar
    10    5   12       1
    11    5   11       1
@<TRIPOS>SUBSTRUCTURE
     1 PEP502      1 GROUP             4 B     PEP     0 **** PEP B 502
