@<TRIPOS>MOLECULE
3baz_NAP_1_ligand
   73    77     1     0     0
SMALL
NO_CHARGES


@<TRIPOS>ATOM
     1 PA          39.4800    19.5770   -14.8910 P.3          1 NAP500   0.0000
     2 O1A         40.2570    18.8840   -15.7800 O.co2        1 NAP500   0.0000
     3 O2A         39.5140    20.9370   -14.8570 O.co2        1 NAP500  -1.0000
     4 O5B         39.9070    19.1510   -13.5900 O.3          1 NAP500   0.0000
     5 C5B         40.3150    17.9400   -13.3090 C.3          1 NAP500   0.0000
     6 C4B         41.2480    17.7550   -12.1950 C.3          1 NAP500   0.0000
     7 O4B         41.5190    16.4940   -11.8100 O.3          1 NAP500   0.0000
     8 C3B         42.5820    18.4550   -12.1220 C.3          1 NAP500   0.0000
     9 O3B         42.5730    19.1800   -10.9130 O.3          1 NAP500   0.0000
    10 C2B         43.6430    17.3510   -12.1670 C.3          1 NAP500   0.0000
    11 O2B         44.8700    17.6450   -11.4300 O.3          1 NAP500   0.0000
    12 C1B         42.8870    16.2500   -11.5300 C.3          1 NAP500   0.0000
    13 N9A         43.3970    14.9840   -12.0540 N.pl3        1 NAP500   0.0000
    14 C8A         43.5370    14.5940   -13.3150 C.2          1 NAP500   0.0000
    15 N7A         44.0180    13.4120   -13.3580 N.2          1 NAP500   0.0000
    16 C5A         44.2060    12.9940   -12.1550 C.ar         1 NAP500   0.0000
    17 C6A         44.6920    11.8240   -11.5600 C.ar         1 NAP500   0.0000
    18 N6A         45.1320    10.7410   -12.1790 N.pl3        1 NAP500   0.0000
    19 N1A         44.7280    11.7800   -10.2480 N.ar         1 NAP500   0.0000
    20 C2A         44.3370    12.7800    -9.5060 C.ar         1 NAP500   0.0000
    21 N3A         43.8910    13.9000   -10.0280 N.ar         1 NAP500   0.0000
    22 C4A         43.8130    14.0110   -11.3300 C.ar         1 NAP500   0.0000
    23 O3          38.0260    19.1360   -15.2580 O.3          1 NAP500   0.0000
    24 PN          36.6680    19.5560   -14.6460 P.3          1 NAP500   0.0000
    25 O1N         35.9820    20.3470   -15.5500 O.co2        1 NAP500   0.0000
    26 O2N         36.7950    20.1520   -13.3510 O.co2        1 NAP500  -1.0000
    27 O5D         35.8890    18.2860   -14.6300 O.3          1 NAP500   0.0000
    28 C5D         36.1560    17.2050   -13.8260 C.3          1 NAP500   0.0000
    29 C4D         35.3520    15.9870   -14.0910 C.3          1 NAP500   0.0000
    30 O4D         34.1000    16.1550   -13.5640 O.3          1 NAP500   0.0000
    31 C3D         35.0730    15.5650   -15.5220 C.3          1 NAP500   0.0000
    32 O3D         36.1480    14.9430   -16.1970 O.3          1 NAP500   0.0000
    33 C2D         33.8820    14.6610   -15.2830 C.3          1 NAP500   0.0000
    34 O2D         34.1890    13.3590   -15.2360 O.3          1 NAP500   0.0000
    35 C1D         33.2550    15.2050   -13.9820 C.3          1 NAP500   0.0000
    36 N1N         31.9450    15.8770   -14.1890 N.ar         1 NAP500   1.0000
    37 C2N         30.7940    15.4030   -13.5940 C.ar         1 NAP500   0.0000
    38 C3N         29.5830    16.0440   -13.8420 C.ar         1 NAP500   0.0000
    39 C7N         28.2220    15.7030   -13.2820 C.2          1 NAP500   0.0000
    40 O7N         27.2670    16.0890   -13.9230 O.2          1 NAP500   0.0000
    41 N7N         28.2070    15.3420   -12.0490 N.am         1 NAP500   0.0000
    42 C4N         29.5940    17.1410   -14.7320 C.ar         1 NAP500   0.0000
    43 C5N         30.7500    17.5990   -15.3120 C.ar         1 NAP500   0.0000
    44 C6N         31.8780    16.9320   -15.0210 C.ar         1 NAP500   0.0000
    45 P2B         46.3550    17.0670   -11.7440 P.3          1 NAP500   0.0000
    46 O1X         46.5930    17.2960   -13.1160 O.co2        1 NAP500   0.0000
    47 O2X         47.3540    17.8010   -11.0120 O.co2        1 NAP500  -1.0000
    48 O3X         46.5300    15.6920   -11.1690 O.co2        1 NAP500  -1.0000
    49 H5B1        40.7606    17.5814   -14.1293 H            1 NAP500   0.0000
    50 H5B2        39.5017    17.3947   -13.1060 H            1 NAP500   0.0000
    51 H4B         40.7493    18.1307   -11.4139 H            1 NAP500   0.0000
    52 H3B         42.6923    19.0752   -12.8986 H            1 NAP500   0.0000
    53 H5          43.4398    19.6680   -10.8105 H            1 NAP500   0.0000
    54 H2B         43.8580    17.1180   -13.1154 H            1 NAP500   0.0000
    55 H1B         43.0316    16.2797   -10.5410 H            1 NAP500   0.0000
    56 H8A         43.3003    15.1456   -14.1148 H            1 NAP500   0.0000
    57 H6A1        45.4579     9.9590   -11.6477 H            1 NAP500   0.0000
    58 H6A2        45.1387    10.7042   -13.1783 H            1 NAP500   0.0000
    59 H2A         44.3781    12.6910    -8.5108 H            1 NAP500   0.0000
    60 H5D1        35.9926    17.4799   -12.8785 H            1 NAP500   0.0000
    61 H5D2        37.1203    16.9671   -13.9425 H            1 NAP500   0.0000
    62 H4D         35.7867    15.2194   -13.6200 H            1 NAP500   0.0000
    63 H3D         34.7768    16.3636   -16.0460 H            1 NAP500   0.0000
    64 H16         36.6965    15.6380   -16.6619 H            1 NAP500   0.0000
    65 H2D         33.2289    14.8014   -16.0271 H            1 NAP500   0.0000
    66 H18         34.8376    13.1961   -14.4925 H            1 NAP500   0.0000
    67 H1D         33.1748    14.4791   -13.2989 H            1 NAP500   0.0000
    68 H2N         30.8291    14.6066   -12.9903 H            1 NAP500   0.0000
    69 H7N1        27.3419    15.1008   -11.6091 H            1 NAP500   0.0000
    70 H7N2        29.0604    15.3022   -11.5292 H            1 NAP500   0.0000
    71 H4N         28.7311    17.5987   -14.9463 H            1 NAP500   0.0000
    72 H5N         30.7521    18.3914   -15.9220 H            1 NAP500   0.0000
    73 H6N         32.7261    17.2403   -15.4519 H            1 NAP500   0.0000
@<TRIPOS>BOND
     1    1    2      ar
     2    1    3      ar
     3    1    4       1
     4    1   23       1
     5    4    5       1
     6    5    6       1
     7    6    7       1
     8    6    8       1
     9    7   12       1
    10    8    9       1
    11    8   10       1
    12   10   11       1
    13   10   12       1
    14   11   45       1
    15   12   13       1
    16   13   14       1
    17   13   22       1
    18   14   15       2
    19   15   16       1
    20   16   17      ar
    21   16   22      ar
    22   17   18       1
    23   17   19      ar
    24   19   20      ar
    25   20   21      ar
    26   21   22      ar
    27   23   24       1
    28   24   25      ar
    29   24   26      ar
    30   24   27       1
    31   27   28       1
    32   28   29       1
    33   29   30       1
    34   29   31       1
    35   30   35       1
    36   31   32       1
    37   31   33       1
    38   33   34       1
    39   33   35       1
    40   35   36       1
    41   36   37      ar
    42   36   44      ar
    43   37   38      ar
    44   38   39       1
    45   38   42      ar
    46   39   40       2
    47   39   41      am
    48   42   43      ar
    49   43   44      ar
    50   45   46      ar
    51   45   47      ar
    52   45   48      ar
    53   43   72       1
    54    5   49       1
    55    5   50       1
    56    6   51       1
    57    8   52       1
    58    9   53       1
    59   10   54       1
    60   12   55       1
    61   14   56       1
    62   18   57       1
    63   18   58       1
    64   20   59       1
    65   44   73       1
    66   28   60       1
    67   28   61       1
    68   29   62       1
    69   31   63       1
    70   32   64       1
    71   33   65       1
    72   34   66       1
    73   35   67       1
    74   37   68       1
    75   41   69       1
    76   41   70       1
    77   42   71       1
@<TRIPOS>SUBSTRUCTURE
     1 NAP500      1 GROUP             4 A     NAP     0 **** NAP A 500
