@<TRIPOS>MOLECULE
2az3_CDP_2_ligand
   37    38     1     0     0
SMALL
NO_CHARGES


@<TRIPOS>ATOM
     1 O3B         19.1790     3.3140    18.8590 O.co2        1 CDP1200   0.0000
     2 PB          18.7890     3.5380    20.3840 P.3          1 CDP1200   0.0000
     3 O1B         19.1690     5.0550    20.6520 O.co2        1 CDP1200  -1.0000
     4 O2B         17.2950     3.2690    20.7910 O.co2        1 CDP1200  -1.0000
     5 O3A         19.6050     2.4280    21.2610 O.3          1 CDP1200   0.0000
     6 PA          21.1270     2.5540    21.7870 P.3          1 CDP1200   0.0000
     7 O1A         21.6770     4.0080    21.6110 O.co2        1 CDP1200   0.0000
     8 O2A         21.0350     2.0070    23.2810 O.co2        1 CDP1200  -1.0000
     9 O5'         21.9590     1.5160    20.9880 O.3          1 CDP1200   0.0000
    10 C5'         22.3440     1.9050    19.7130 C.3          1 CDP1200   0.0000
    11 C4'         22.2660     0.6590    18.8850 C.3          1 CDP1200   0.0000
    12 O4'         23.2320    -0.3850    19.1530 O.3          1 CDP1200   0.0000
    13 C3'         20.8800     0.0360    18.8340 C.3          1 CDP1200   0.0000
    14 O3'         20.0280     0.5610    17.8690 O.3          1 CDP1200   0.0000
    15 C2'         21.1690    -1.4230    18.6990 C.3          1 CDP1200   0.0000
    16 O2'         21.0480    -1.6920    17.3390 O.3          1 CDP1200   0.0000
    17 C1'         22.6380    -1.6810    18.9670 C.3          1 CDP1200   0.0000
    18 N1          22.6600    -2.5650    20.1290 N.pl3        1 CDP1200   0.0000
    19 C2          22.9940    -3.9200    19.9230 C.2          1 CDP1200   0.0000
    20 O2          23.2840    -4.3100    18.7840 O.2          1 CDP1200   0.0000
    21 N3          23.0290    -4.7960    20.9550 N.2          1 CDP1200   0.0000
    22 C4          22.7030    -4.3880    22.1950 C.2          1 CDP1200   0.0000
    23 N4          22.7320    -5.3080    23.2170 N.pl3        1 CDP1200   0.0000
    24 C5          22.3310    -3.0430    22.4110 C.2          1 CDP1200   0.0000
    25 C6          22.3130    -2.1420    21.3500 C.2          1 CDP1200   0.0000
    26 H5'1        23.2778     2.2627    19.7220 H            1 CDP1200   0.0000
    27 H5'2        21.7231     2.6030    19.3564 H            1 CDP1200   0.0000
    28 H4'         22.4541     0.9552    17.9486 H            1 CDP1200   0.0000
    29 H3'         20.4512     0.1783    19.7261 H            1 CDP1200   0.0000
    30 H5          19.8942     1.5375    18.0381 H            1 CDP1200   0.0000
    31 H2'         20.5673    -1.9906    19.2610 H            1 CDP1200   0.0000
    32 H7          20.3319    -2.3754    17.1968 H            1 CDP1200   0.0000
    33 H1'         23.0540    -2.1385    18.1811 H            1 CDP1200   0.0000
    34 H9          22.4939    -5.0294    24.1474 H            1 CDP1200   0.0000
    35 H10         22.9912    -6.2555    23.0296 H            1 CDP1200   0.0000
    36 H11         22.0797    -2.7368    23.3292 H            1 CDP1200   0.0000
    37 H12         22.0440    -1.1904    21.4986 H            1 CDP1200   0.0000
@<TRIPOS>BOND
     1    1    2      ar
     2    2    3      ar
     3    2    4      ar
     4    2    5       1
     5    5    6       1
     6    6    7      ar
     7    6    8      ar
     8    6    9       1
     9    9   10       1
    10   10   11       1
    11   11   12       1
    12   11   13       1
    13   12   17       1
    14   13   14       1
    15   13   15       1
    16   15   16       1
    17   15   17       1
    18   17   18       1
    19   18   19       1
    20   18   25       1
    21   19   20       2
    22   19   21       1
    23   21   22       2
    24   22   23       1
    25   22   24       1
    26   24   25       2
    27   25   37       1
    28   24   36       1
    29   23   35       1
    30   10   26       1
    31   10   27       1
    32   11   28       1
    33   13   29       1
    34   14   30       1
    35   15   31       1
    36   16   32       1
    37   17   33       1
    38   23   34       1
@<TRIPOS>SUBSTRUCTURE
     1 CDP1200     1 GROUP             4 B     CDP     0 **** CDP B1200
