@<TRIPOS>MOLECULE
./coach420/2qeh/ligand.pdb
 13 14 0 0 0
SMALL
GASTEIGER

@<TRIPOS>ATOM
      1  OH        16.5170  -13.4770   -4.0240 O.2   145  SRO145     -0.2869
      2  CZ3       17.3840  -12.4770   -4.3380 C.2   145  SRO145      0.1922
      3  CH2       16.9740  -11.1720   -4.0640 C.2   145  SRO145      0.0429
      4  CZ2       17.8170  -10.1210   -4.3620 C.2   145  SRO145      0.0186
      5  CE2       19.0430  -10.4360   -4.9170 C.2   145  SRO145      0.0667
      6  NE1       20.0770   -9.6880   -5.3470 N.2   145  SRO145     -0.2482
      7  CD1       21.0370  -10.5080   -5.8360 C.2   145  SRO145      0.0907
      8  CG        20.6210  -11.8280   -5.7250 C.2   145  SRO145     -0.0143
      9  CD2       19.3500  -11.7660   -5.1560 C.3   145  SRO145      0.0851
     10  CE3       18.5470  -12.7390   -4.8650 C.2   145  SRO145      0.0256
     11  CB        21.4420  -13.0290   -6.1670 C.3   145  SRO145      0.0448
     12  CA        22.9370  -12.6660   -6.1150 C.3   145  SRO145      0.1137
     13  NZ        23.7690  -13.8280   -6.4090 N.3   145  SRO145     -0.1310
@<TRIPOS>BOND
     1     1     2    1
     2     2    10    2
     3     2     3    1
     4     3     4    2
     5     4     5    1
     6     5     6    2
     7     5     9    1
     8     6     7    1
     9     7     8    2
    10     8    11    1
    11     8     9    1
    12     9    10    1
    13    11    12    1
    14    12    13    1
