@<TRIPOS>MOLECULE
3uox_FAD_1_ligand
   84    89     1     0     0
SMALL
NO_CHARGES


@<TRIPOS>ATOM
     1 PA          -5.9910    -6.4280    38.4670 P.3          1 FAD551   0.0000
     2 O1A         -6.5090    -5.4070    39.4720 O.co2        1 FAD551   0.0000
     3 O2A         -7.0170    -6.8570    37.4540 O.co2        1 FAD551  -1.0000
     4 O5B         -5.3120    -7.6680    39.1940 O.3          1 FAD551   0.0000
     5 C5B         -4.4940    -7.4230    40.3100 C.3          1 FAD551   0.0000
     6 C4B         -4.3720    -8.7490    41.0420 C.3          1 FAD551   0.0000
     7 O4B         -3.3400    -8.6590    42.0160 O.3          1 FAD551   0.0000
     8 C3B         -5.6450    -9.0290    41.8390 C.3          1 FAD551   0.0000
     9 O3B         -6.1410   -10.3100    41.5400 O.3          1 FAD551   0.0000
    10 C2B         -5.2720    -8.9310    43.3080 C.3          1 FAD551   0.0000
    11 O2B         -5.8970    -9.9390    44.1010 O.3          1 FAD551   0.0000
    12 C1B         -3.7880    -9.2230    43.2320 C.3          1 FAD551   0.0000
    13 N9A         -2.9860    -8.7370    44.3680 N.pl3        1 FAD551   0.0000
    14 C8A         -2.8770    -7.4190    44.7710 C.2          1 FAD551   0.0000
    15 N7A         -2.0340    -7.3890    45.8340 N.2          1 FAD551   0.0000
    16 C5A         -1.6070    -8.6550    46.1100 C.ar         1 FAD551   0.0000
    17 C6A         -0.7480    -9.2030    47.0670 C.ar         1 FAD551   0.0000
    18 N6A         -0.0810    -8.4350    47.8900 N.pl3        1 FAD551   0.0000
    19 N1A         -0.4890   -10.5700    47.0930 N.ar         1 FAD551   0.0000
    20 C2A         -1.1100   -11.4080    46.1850 C.ar         1 FAD551   0.0000
    21 N3A         -1.9670   -10.8700    45.2400 N.ar         1 FAD551   0.0000
    22 C4A         -2.2040    -9.5160    45.1940 C.ar         1 FAD551   0.0000
    23 N1          -9.8440    -0.9100    32.1190 N.2          1 FAD551   0.0000
    24 C2          -9.9260    -0.7700    30.7350 C.2          1 FAD551   0.0000
    25 O2          -8.9200    -0.5470    30.0830 O.2          1 FAD551   0.0000
    26 N3         -11.1400    -0.8840    30.0930 N.pl3        1 FAD551   0.0000
    27 C4         -12.2890    -1.1050    30.8430 C.2          1 FAD551   0.0000
    28 O4         -13.3620    -1.1880    30.2810 O.2          1 FAD551   0.0000
    29 C4X        -12.2310    -1.2540    32.2200 C.2          1 FAD551   0.0000
    30 N5         -13.3870    -1.4910    32.9770 N.2          1 FAD551   0.0000
    31 C5X        -13.2970    -1.6340    34.3440 C.ar         1 FAD551   0.0000
    32 C6         -14.4530    -1.8550    35.1010 C.ar         1 FAD551   0.0000
    33 C7         -14.3390    -1.9990    36.4750 C.ar         1 FAD551   0.0000
    34 C7M        -15.5970    -2.2440    37.2800 C.3          1 FAD551   0.0000
    35 C8         -13.1000    -1.8990    37.1010 C.ar         1 FAD551   0.0000
    36 C8M        -12.9310    -2.0390    38.6010 C.3          1 FAD551   0.0000
    37 C9         -11.9600    -1.6470    36.3360 C.ar         1 FAD551   0.0000
    38 C9A        -12.0480    -1.5230    34.9580 C.ar         1 FAD551   0.0000
    39 N10        -10.9020    -1.2850    34.2100 N.pl3        1 FAD551   0.0000
    40 C10        -10.9870    -1.1490    32.8460 C.2          1 FAD551   0.0000
    41 C1'         -9.5400    -1.1680    34.8330 C.3          1 FAD551   0.0000
    42 C2'         -8.9690    -2.5650    35.1410 C.3          1 FAD551   0.0000
    43 O2'         -8.1690    -2.3280    36.2580 O.3          1 FAD551   0.0000
    44 C3'         -8.0340    -3.1370    34.0750 C.3          1 FAD551   0.0000
    45 O3'         -8.7100    -3.2500    32.8400 O.3          1 FAD551   0.0000
    46 C4'         -7.4370    -4.5240    34.4010 C.3          1 FAD551   0.0000
    47 O4'         -8.4140    -5.4080    34.8870 O.3          1 FAD551   0.0000
    48 C5'         -6.2740    -4.4910    35.3750 C.3          1 FAD551   0.0000
    49 O5'         -5.6070    -5.7470    35.3280 O.3          1 FAD551   0.0000
    50 P           -4.2950    -5.9360    36.2410 P.3          1 FAD551   0.0000
    51 O1P         -3.9090    -7.4060    36.0180 O.co2        1 FAD551   0.0000
    52 O2P         -3.2310    -4.9330    35.9360 O.co2        1 FAD551  -1.0000
    53 O3P         -4.7650    -5.6800    37.7670 O.3          1 FAD551   0.0000
    54 H5B1        -4.9133    -6.7361    40.9036 H            1 FAD551   0.0000
    55 H5B2        -3.5927    -7.1044    40.0165 H            1 FAD551   0.0000
    56 H4B         -4.1871    -9.4920    40.3988 H            1 FAD551   0.0000
    57 H3B         -6.3369    -8.3408    41.6208 H            1 FAD551   0.0000
    58 H5          -5.4531   -10.9969    41.7745 H            1 FAD551   0.0000
    59 H2B         -5.4481    -8.0162    43.6714 H            1 FAD551   0.0000
    60 H7          -5.6183   -10.8416    43.7730 H            1 FAD551   0.0000
    61 H1B         -3.6713   -10.2145    43.1737 H            1 FAD551   0.0000
    62 H8A         -3.3349    -6.6329    44.3558 H            1 FAD551   0.0000
    63 H6A1         0.5298    -8.8417    48.5694 H            1 FAD551   0.0000
    64 H6A2        -0.1821    -7.4414    47.8396 H            1 FAD551   0.0000
    65 H2A         -0.9416   -12.3934    46.2107 H            1 FAD551   0.0000
    66 H13        -11.1937    -0.8085    29.0973 H            1 FAD551   0.0000
    67 H14        -15.3477    -1.9082    34.6575 H            1 FAD551   0.0000
    68 H7M1       -15.3622    -2.3268    38.2485 H            1 FAD551   0.0000
    69 H7M2       -16.2277    -1.4782    37.1542 H            1 FAD551   0.0000
    70 H7M3       -16.0324    -3.0889    36.9692 H            1 FAD551   0.0000
    71 H8M1       -11.9654    -1.9339    38.8389 H            1 FAD551   0.0000
    72 H8M2       -13.4671    -1.3333    39.0642 H            1 FAD551   0.0000
    73 H8M3       -13.2490    -2.9422    38.8894 H            1 FAD551   0.0000
    74 H21        -11.0717    -1.5551    36.7860 H            1 FAD551   0.0000
    75 H1'1        -9.6102    -0.6459    35.6830 H            1 FAD551   0.0000
    76 H1'2        -8.9278    -0.6939    34.2002 H            1 FAD551   0.0000
    77 H2'         -9.7016    -3.2105    35.3570 H            1 FAD551   0.0000
    78 H25         -8.7127    -2.4474    37.0888 H            1 FAD551   0.0000
    79 H3'         -7.2761    -2.4960    33.9539 H            1 FAD551   0.0000
    80 H27         -9.4100    -2.5387    32.7769 H            1 FAD551   0.0000
    81 H4'         -7.0931    -4.9064    33.5434 H            1 FAD551   0.0000
    82 H29         -8.8160    -5.0338    35.7227 H            1 FAD551   0.0000
    83 H5'1        -6.6142    -4.3246    36.3005 H            1 FAD551   0.0000
    84 H5'2        -5.6392    -3.7626    35.1172 H            1 FAD551   0.0000
@<TRIPOS>BOND
     1    1    2      ar
     2    1    3      ar
     3    1    4       1
     4    1   53       1
     5    4    5       1
     6    5    6       1
     7    6    7       1
     8    6    8       1
     9    7   12       1
    10    8    9       1
    11    8   10       1
    12   10   11       1
    13   10   12       1
    14   12   13       1
    15   13   14       1
    16   13   22       1
    17   14   15       2
    18   15   16       1
    19   16   17      ar
    20   16   22      ar
    21   17   18       1
    22   17   19      ar
    23   19   20      ar
    24   20   21      ar
    25   21   22      ar
    26   23   24       1
    27   23   40       2
    28   24   25       2
    29   24   26       1
    30   26   27       1
    31   27   28       2
    32   27   29       1
    33   29   30       2
    34   29   40       1
    35   30   31       1
    36   31   32      ar
    37   31   38      ar
    38   32   33      ar
    39   33   34       1
    40   33   35      ar
    41   35   36       1
    42   35   37      ar
    43   37   38      ar
    44   38   39       1
    45   39   40       1
    46   39   41       1
    47   41   42       1
    48   42   43       1
    49   42   44       1
    50   44   45       1
    51   44   46       1
    52   46   47       1
    53   46   48       1
    54   48   49       1
    55   49   50       1
    56   50   51      ar
    57   50   52      ar
    58   50   53       1
    59   48   84       1
    60    5   54       1
    61    5   55       1
    62    6   56       1
    63    8   57       1
    64    9   58       1
    65   10   59       1
    66   11   60       1
    67   12   61       1
    68   14   62       1
    69   18   63       1
    70   18   64       1
    71   20   65       1
    72   26   66       1
    73   32   67       1
    74   34   68       1
    75   34   69       1
    76   34   70       1
    77   36   71       1
    78   36   72       1
    79   36   73       1
    80   37   74       1
    81   41   75       1
    82   41   76       1
    83   42   77       1
    84   43   78       1
    85   44   79       1
    86   45   80       1
    87   46   81       1
    88   47   82       1
    89   48   83       1
@<TRIPOS>SUBSTRUCTURE
     1 FAD551      1 GROUP             4 A     FAD     0 **** FAD A 551
