@<TRIPOS>MOLECULE
3gfb_NAD_4_ligand
   70    74     1     0     0
SMALL
NO_CHARGES


@<TRIPOS>ATOM
     1 PA          -9.0910   -41.5160   -22.2360 P.3          1 NAD503   0.0000
     2 O1A         -9.6020   -42.3490   -23.4410 O.co2        1 NAD503   0.0000
     3 O2A         -9.8310   -40.2100   -22.1270 O.co2        1 NAD503  -1.0000
     4 O5B         -7.4520   -41.3380   -22.4140 O.3          1 NAD503   0.0000
     5 C5B         -6.3270   -42.2280   -22.3510 C.3          1 NAD503   0.0000
     6 C4B         -5.2430   -41.7760   -23.4450 C.3          1 NAD503   0.0000
     7 O4B         -3.9540   -41.4950   -22.9270 O.3          1 NAD503   0.0000
     8 C3B         -5.6290   -40.4070   -24.0150 C.3          1 NAD503   0.0000
     9 O3B         -5.7340   -39.4300   -22.9690 O.3          1 NAD503   0.0000
    10 C2B         -4.4130   -40.0810   -24.8290 C.3          1 NAD503   0.0000
    11 O2B         -4.3080   -38.5980   -24.9260 O.3          1 NAD503   0.0000
    12 C1B         -3.2920   -40.8950   -23.9960 C.3          1 NAD503   0.0000
    13 N9A         -2.3960   -41.7640   -24.8910 N.pl3        1 NAD503   0.0000
    14 C8A         -2.7280   -42.1060   -26.1670 C.2          1 NAD503   0.0000
    15 N7A         -1.7270   -42.7810   -26.7010 N.2          1 NAD503   0.0000
    16 C5A         -0.7650   -42.8760   -25.7960 C.ar         1 NAD503   0.0000
    17 C6A          0.4580   -43.5030   -25.8480 C.ar         1 NAD503   0.0000
    18 N6A          0.7470   -44.1250   -26.9920 N.pl3        1 NAD503   0.0000
    19 N1A          1.2660   -43.4710   -24.7370 N.ar         1 NAD503   0.0000
    20 C2A          0.8570   -42.8300   -23.6300 C.ar         1 NAD503   0.0000
    21 N3A         -0.3190   -42.2370   -23.5710 N.ar         1 NAD503   0.0000
    22 C4A         -1.1640   -42.2610   -24.6280 C.ar         1 NAD503   0.0000
    23 O3          -9.4790   -42.5970   -21.1200 O.3          1 NAD503   0.0000
    24 PN          -9.8810   -42.5190   -19.5750 P.3          1 NAD503   0.0000
    25 O1N         -8.5220   -42.4100   -18.7030 O.co2        1 NAD503   0.0000
    26 O2N        -11.1660   -42.0250   -19.0850 O.co2        1 NAD503  -1.0000
    27 O5D        -10.1980   -43.9910   -19.4870 O.3          1 NAD503   0.0000
    28 C5D         -9.0890   -44.8680   -19.1520 C.3          1 NAD503   0.0000
    29 C4D         -9.8560   -46.1480   -19.2120 C.3          1 NAD503   0.0000
    30 O4D         -9.2430   -47.3300   -18.8150 O.3          1 NAD503   0.0000
    31 C3D        -10.2680   -46.4260   -20.6900 C.3          1 NAD503   0.0000
    32 O3D         -9.2750   -47.0260   -21.5200 O.3          1 NAD503   0.0000
    33 C2D        -11.1430   -47.5530   -20.4210 C.3          1 NAD503   0.0000
    34 O2D        -11.2200   -48.1720   -21.6970 O.3          1 NAD503   0.0000
    35 C1D        -10.2290   -48.3090   -19.4740 C.3          1 NAD503   0.0000
    36 N1N        -11.2270   -48.9510   -18.6450 N.ar         1 NAD503   1.0000
    37 C2N        -10.9410   -50.2830   -18.3530 C.ar         1 NAD503   0.0000
    38 C3N        -11.8010   -51.0120   -17.5530 C.ar         1 NAD503   0.0000
    39 C7N        -11.3790   -52.3890   -17.3710 C.2          1 NAD503   0.0000
    40 O7N        -12.1790   -53.2300   -17.0270 O.2          1 NAD503   0.0000
    41 N7N        -10.1780   -52.6190   -17.7840 N.am         1 NAD503   0.0000
    42 C4N        -12.9700   -50.4980   -17.0730 C.ar         1 NAD503   0.0000
    43 C5N        -13.2610   -49.1520   -17.3710 C.ar         1 NAD503   0.0000
    44 C6N        -12.4110   -48.3490   -18.1680 C.ar         1 NAD503   0.0000
    45 H5B1        -6.6273   -43.1624   -22.5424 H            1 NAD503   0.0000
    46 H5B2        -5.9192   -42.1892   -21.4387 H            1 NAD503   0.0000
    47 H4B         -5.1838   -42.4542   -24.1775 H            1 NAD503   0.0000
    48 H3B         -6.4567   -40.4511   -24.5744 H            1 NAD503   0.0000
    49 H5          -4.8544   -39.3474   -22.5005 H            1 NAD503   0.0000
    50 H2B         -4.5044   -40.4734   -25.7442 H            1 NAD503   0.0000
    51 H7          -3.7628   -38.2518   -24.1625 H            1 NAD503   0.0000
    52 H1B         -2.6916   -40.2034   -23.5945 H            1 NAD503   0.0000
    53 H8A         -3.5888   -41.8824   -26.6243 H            1 NAD503   0.0000
    54 H6A1         1.6205   -44.6007   -27.0957 H            1 NAD503   0.0000
    55 H6A2         0.0902   -44.1156   -27.7460 H            1 NAD503   0.0000
    56 H2A          1.4586   -42.8018   -22.8317 H            1 NAD503   0.0000
    57 H5D1        -8.7169   -44.6858   -18.2418 H            1 NAD503   0.0000
    58 H5D2        -8.3522   -44.8300   -19.8270 H            1 NAD503   0.0000
    59 H4D        -10.6908   -46.0351   -18.6731 H            1 NAD503   0.0000
    60 H3D        -10.7351   -45.6554   -21.1236 H            1 NAD503   0.0000
    61 H17         -8.3669   -46.7457   -21.2090 H            1 NAD503   0.0000
    62 H2D        -12.0285   -47.3037   -20.0290 H            1 NAD503   0.0000
    63 H19        -10.3699   -48.0097   -22.1980 H            1 NAD503   0.0000
    64 H1D         -9.7205   -49.0033   -19.9833 H            1 NAD503   0.0000
    65 H2N        -10.1155   -50.7107   -18.7213 H            1 NAD503   0.0000
    66 H7N1        -9.7892   -53.5369   -17.7048 H            1 NAD503   0.0000
    67 H7N2        -9.6363   -51.8793   -18.1832 H            1 NAD503   0.0000
    68 H4N        -13.5972   -51.0560   -16.5297 H            1 NAD503   0.0000
    69 H5N        -14.1000   -48.7489   -17.0054 H            1 NAD503   0.0000
    70 H6N        -12.6386   -47.3993   -18.3832 H            1 NAD503   0.0000
@<TRIPOS>BOND
     1    1    2      ar
     2    1    3      ar
     3    1    4       1
     4    1   23       1
     5    4    5       1
     6    5    6       1
     7    6    7       1
     8    6    8       1
     9    7   12       1
    10    8    9       1
    11    8   10       1
    12   10   11       1
    13   10   12       1
    14   12   13       1
    15   13   14       1
    16   13   22       1
    17   14   15       2
    18   15   16       1
    19   16   17      ar
    20   16   22      ar
    21   17   18       1
    22   17   19      ar
    23   19   20      ar
    24   20   21      ar
    25   21   22      ar
    26   23   24       1
    27   24   25      ar
    28   24   26      ar
    29   24   27       1
    30   27   28       1
    31   28   29       1
    32   29   30       1
    33   29   31       1
    34   30   35       1
    35   31   32       1
    36   31   33       1
    37   33   34       1
    38   33   35       1
    39   35   36       1
    40   36   37      ar
    41   36   44      ar
    42   37   38      ar
    43   38   39       1
    44   38   42      ar
    45   39   40       2
    46   39   41      am
    47   42   43      ar
    48   43   44      ar
    49   44   70       1
    50    5   45       1
    51    5   46       1
    52    6   47       1
    53    8   48       1
    54    9   49       1
    55   10   50       1
    56   11   51       1
    57   12   52       1
    58   14   53       1
    59   18   54       1
    60   18   55       1
    61   20   56       1
    62   43   69       1
    63   28   57       1
    64   28   58       1
    65   29   59       1
    66   31   60       1
    67   32   61       1
    68   33   62       1
    69   34   63       1
    70   35   64       1
    71   37   65       1
    72   41   66       1
    73   41   67       1
    74   42   68       1
@<TRIPOS>SUBSTRUCTURE
     1 NAD503      1 GROUP             4 D     NAD     0 **** NAD D 503
