@<TRIPOS>MOLECULE
3oqu_A8S_2_ligand
   38    38     1     0     0
SMALL
NO_CHARGES


@<TRIPOS>ATOM
     1 C1           1.2200    19.6450    -0.6580 C.2          1 A8S191   0.0000
     2 C2           1.3720    20.6890    -1.7080 C.2          1 A8S191   0.0000
     3 C3           0.3930    21.5410    -2.0780 C.2          1 A8S191   0.0000
     4 C4          -0.9420    21.5180    -1.4280 C.2          1 A8S191   0.0000
     5 C5          -1.9550    22.2590    -1.8940 C.2          1 A8S191   0.0000
     6 C6           0.6770    22.5410    -3.1720 C.3          1 A8S191   0.0000
     7 C7          -3.3240    22.2600    -1.2410 C.3          1 A8S191   0.0000
     8 O7          -3.4380    21.1350    -0.3450 O.3          1 A8S191   0.0000
     9 C8          -3.4320    23.5370    -0.4250 C.2          1 A8S191   0.0000
    10 C9          -3.8810    24.6820    -0.9810 C.2          1 A8S191   0.0000
    11 C10         -4.5690    24.6920    -2.2950 C.2          1 A8S191   0.0000
    12 O10         -5.1290    25.7170    -2.6850 O.2          1 A8S191   0.0000
    13 C11         -4.5870    23.4350    -3.1490 C.3          1 A8S191   0.0000
    14 O11          0.3140    19.7180     0.2060 O.co2        1 A8S191   0.0000
    15 C12         -4.4260    22.1520    -2.3170 C.3          1 A8S191   0.0000
    16 O12          2.0110    18.6700    -0.6620 O.co2        1 A8S191  -1.0000
    17 C13         -3.0250    23.5480     1.0270 C.3          1 A8S191   0.0000
    18 C14         -4.1210    21.0190    -3.2930 C.3          1 A8S191   0.0000
    19 C15         -5.7600    21.8060    -1.6510 C.3          1 A8S191   0.0000
    20 H1           2.2563    20.7639    -2.1688 H            1 A8S191   0.0000
    21 H2          -1.0872    20.9377    -0.6266 H            1 A8S191   0.0000
    22 H3          -1.8039    22.8313    -2.7000 H            1 A8S191   0.0000
    23 H4          -0.1374    23.0983    -3.3339 H            1 A8S191   0.0000
    24 H5           1.4353    23.1313    -2.8954 H            1 A8S191   0.0000
    25 H6           0.9213    22.0560    -4.0117 H            1 A8S191   0.0000
    26 H7          -3.3172    20.2858    -0.8591 H            1 A8S191   0.0000
    27 H8          -3.7464    25.5454    -0.4948 H            1 A8S191   0.0000
    28 H9          -3.8370    23.4852    -3.8085 H            1 A8S191   0.0000
    29 H10         -5.4584    23.3924    -3.6378 H            1 A8S191   0.0000
    30 H11         -3.1612    24.4640     1.4044 H            1 A8S191   0.0000
    31 H12         -3.5834    22.8919     1.5347 H            1 A8S191   0.0000
    32 H13         -2.0606    23.2954     1.1048 H            1 A8S191   0.0000
    33 H14         -4.8457    20.9667    -3.9801 H            1 A8S191   0.0000
    34 H15         -3.2459    21.1942    -3.7442 H            1 A8S191   0.0000
    35 H16         -4.0715    20.1537    -2.7942 H            1 A8S191   0.0000
    36 H17         -6.4728    21.7363    -2.3489 H            1 A8S191   0.0000
    37 H18         -5.6765    20.9325    -1.1715 H            1 A8S191   0.0000
    38 H19         -6.0022    22.5231    -0.9975 H            1 A8S191   0.0000
@<TRIPOS>BOND
     1    1    2       1
     2    1   14      ar
     3    1   16      ar
     4    2    3       2
     5    3    4       1
     6    3    6       1
     7    4    5       2
     8    5    7       1
     9    7    8       1
    10    7    9       1
    11    7   15       1
    12    9   10       2
    13    9   17       1
    14   10   11       1
    15   11   12       2
    16   11   13       1
    17   13   15       1
    18   15   18       1
    19   15   19       1
    20    2   20       1
    21    4   21       1
    22    5   22       1
    23    6   23       1
    24    6   24       1
    25    6   25       1
    26    8   26       1
    27   10   27       1
    28   13   28       1
    29   13   29       1
    30   19   38       1
    31   17   30       1
    32   17   31       1
    33   17   32       1
    34   18   33       1
    35   18   34       1
    36   18   35       1
    37   19   36       1
    38   19   37       1
@<TRIPOS>SUBSTRUCTURE
     1 A8S191      1 GROUP             4 B     A8S     0 **** A8S B 191
