@<TRIPOS>MOLECULE
2a87_FAD_2_ligand
   84    89     1     0     0
SMALL
NO_CHARGES


@<TRIPOS>ATOM
     1 PA          22.1760    26.6830    20.3260 P.3          1 FAD448   0.0000
     2 O1A         22.0190    28.0080    20.9740 O.co2        1 FAD448   0.0000
     3 O2A         21.8160    26.5250    18.8860 O.co2        1 FAD448  -1.0000
     4 O5B         23.7500    26.2720    20.5550 O.3          1 FAD448   0.0000
     5 C5B         24.2190    26.0120    21.8920 C.3          1 FAD448   0.0000
     6 C4B         25.5790    25.3260    21.9230 C.3          1 FAD448   0.0000
     7 O4B         25.7450    24.0490    22.4160 O.3          1 FAD448   0.0000
     8 C3B         26.8860    25.9510    21.3980 C.3          1 FAD448   0.0000
     9 O3B         27.2080    27.2050    22.0490 O.3          1 FAD448   0.0000
    10 C2B         27.9320    24.8380    21.6690 C.3          1 FAD448   0.0000
    11 O2B         28.9770    25.2890    22.5510 O.3          1 FAD448   0.0000
    12 C1B         27.1580    23.6470    22.3310 C.3          1 FAD448   0.0000
    13 N9A         27.4750    22.3200    21.6330 N.pl3        1 FAD448   0.0000
    14 C8A         27.1790    21.9830    20.3720 C.2          1 FAD448   0.0000
    15 N7A         27.6340    20.7520    20.1220 N.2          1 FAD448   0.0000
    16 C5A         28.2310    20.2960    21.2180 C.ar         1 FAD448   0.0000
    17 C6A         28.8760    19.1040    21.5240 C.ar         1 FAD448   0.0000
    18 N6A         28.9730    18.1440    20.6100 N.pl3        1 FAD448   0.0000
    19 N1A         29.4100    18.9350    22.8100 N.ar         1 FAD448   0.0000
    20 C2A         29.2810    19.9690    23.7430 C.ar         1 FAD448   0.0000
    21 N3A         28.6610    21.0950    23.4150 N.ar         1 FAD448   0.0000
    22 C4A         28.1350    21.2900    22.1840 C.ar         1 FAD448   0.0000
    23 N1          15.4360    33.9010    20.8540 N.2          1 FAD448   0.0000
    24 C2          14.4270    34.5210    21.6580 C.2          1 FAD448   0.0000
    25 O2          13.5770    33.8810    22.2990 O.2          1 FAD448   0.0000
    26 N3          14.4030    35.9130    21.7320 N.pl3        1 FAD448   0.0000
    27 C4          15.3540    36.6820    21.0220 C.2          1 FAD448   0.0000
    28 O4          15.3420    37.9140    21.0860 O.2          1 FAD448   0.0000
    29 C4X         16.3260    36.0620    20.2390 C.2          1 FAD448   0.0000
    30 N5          17.2650    36.8630    19.5620 N.2          1 FAD448   0.0000
    31 C5X         18.3330    36.2720    18.8560 C.ar         1 FAD448   0.0000
    32 C6          19.3010    37.0980    18.2740 C.ar         1 FAD448   0.0000
    33 C7          20.3710    36.5590    17.5520 C.ar         1 FAD448   0.0000
    34 C7M         21.4350    37.4890    16.9280 C.3          1 FAD448   0.0000
    35 C8          20.4720    35.1740    17.4120 C.ar         1 FAD448   0.0000
    36 C8M         21.6560    34.5870    16.6250 C.3          1 FAD448   0.0000
    37 C9          19.5010    34.3410    17.9910 C.ar         1 FAD448   0.0000
    38 C9A         18.4230    34.8770    18.7250 C.ar         1 FAD448   0.0000
    39 N10         17.4080    34.0570    19.3200 N.pl3        1 FAD448   0.0000
    40 C10         16.3920    34.6640    20.1440 C.2          1 FAD448   0.0000
    41 C1'         17.3970    32.5920    19.0270 C.3          1 FAD448   0.0000
    42 C2'         18.0290    31.7700    20.1470 C.3          1 FAD448   0.0000
    43 O2'         19.3450    32.2840    20.3550 O.3          1 FAD448   0.0000
    44 C3'         18.1200    30.2500    19.8290 C.3          1 FAD448   0.0000
    45 O3'         16.8110    29.6210    19.7380 O.3          1 FAD448   0.0000
    46 C4'         19.0070    29.5060    20.8680 C.3          1 FAD448   0.0000
    47 O4'         20.3610    30.0320    20.9000 O.3          1 FAD448   0.0000
    48 C5'         19.0150    27.9880    20.6090 C.3          1 FAD448   0.0000
    49 O5'         19.6860    27.2760    21.6620 O.3          1 FAD448   0.0000
    50 P           19.8720    25.7160    21.6060 P.3          1 FAD448   0.0000
    51 O1P         19.7550    25.1370    22.9650 O.co2        1 FAD448   0.0000
    52 O2P         19.0060    25.2540    20.5120 O.co2        1 FAD448  -1.0000
    53 O3P         21.3860    25.5380    21.1830 O.3          1 FAD448   0.0000
    54 H5B1        23.5549    25.4241    22.3539 H            1 FAD448   0.0000
    55 H5B2        24.2898    26.8821    22.3797 H            1 FAD448   0.0000
    56 H4B         25.7559    25.7055    22.8311 H            1 FAD448   0.0000
    57 H3B         26.8090    26.1000    20.4122 H            1 FAD448   0.0000
    58 H5          28.0940    27.1255    22.5059 H            1 FAD448   0.0000
    59 H2B         28.3319    24.5369    20.8033 H            1 FAD448   0.0000
    60 H7          28.9897    24.7182    23.3720 H            1 FAD448   0.0000
    61 H1B         27.4942    23.5686    23.2695 H            1 FAD448   0.0000
    62 H8A         26.6927    22.5628    19.7183 H            1 FAD448   0.0000
    63 H6A1        29.4377    17.2869    20.8325 H            1 FAD448   0.0000
    64 H6A2        28.5813    18.2788    19.6998 H            1 FAD448   0.0000
    65 H2A         29.6583    19.8589    24.6625 H            1 FAD448   0.0000
    66 H13         13.7100    36.3698    22.2898 H            1 FAD448   0.0000
    67 H14         19.2266    38.0900    18.3759 H            1 FAD448   0.0000
    68 H7M1        22.1209    36.9386    16.4520 H            1 FAD448   0.0000
    69 H7M2        20.9957    38.1092    16.2781 H            1 FAD448   0.0000
    70 H7M3        21.8771    38.0213    17.6500 H            1 FAD448   0.0000
    71 H8M1        21.5874    33.5894    16.6143 H            1 FAD448   0.0000
    72 H8M2        21.6367    34.9325    15.6868 H            1 FAD448   0.0000
    73 H8M3        22.5137    34.8574    17.0622 H            1 FAD448   0.0000
    74 H21         19.5754    33.3499    17.8808 H            1 FAD448   0.0000
    75 H1'1        17.9070    32.4296    18.1823 H            1 FAD448   0.0000
    76 H1'2        16.4495    32.2957    18.9065 H            1 FAD448   0.0000
    77 H2'         17.4952    31.8956    20.9832 H            1 FAD448   0.0000
    78 H25         19.9430    31.5494    20.6755 H            1 FAD448   0.0000
    79 H3'         18.5607    30.1561    18.9363 H            1 FAD448   0.0000
    80 H27         16.8530    28.8552    19.0963 H            1 FAD448   0.0000
    81 H4'         18.6039    29.6557    21.7708 H            1 FAD448   0.0000
    82 H29         21.0068    29.3044    20.6686 H            1 FAD448   0.0000
    83 H5'1        19.4852    27.8085    19.7449 H            1 FAD448   0.0000
    84 H5'2        18.0709    27.6640    20.5483 H            1 FAD448   0.0000
@<TRIPOS>BOND
     1    1    2      ar
     2    1    3      ar
     3    1    4       1
     4    1   53       1
     5    4    5       1
     6    5    6       1
     7    6    7       1
     8    6    8       1
     9    7   12       1
    10    8    9       1
    11    8   10       1
    12   10   11       1
    13   10   12       1
    14   12   13       1
    15   13   14       1
    16   13   22       1
    17   14   15       2
    18   15   16       1
    19   16   17      ar
    20   16   22      ar
    21   17   18       1
    22   17   19      ar
    23   19   20      ar
    24   20   21      ar
    25   21   22      ar
    26   23   24       1
    27   23   40       2
    28   24   25       2
    29   24   26       1
    30   26   27       1
    31   27   28       2
    32   27   29       1
    33   29   30       2
    34   29   40       1
    35   30   31       1
    36   31   32      ar
    37   31   38      ar
    38   32   33      ar
    39   33   34       1
    40   33   35      ar
    41   35   36       1
    42   35   37      ar
    43   37   38      ar
    44   38   39       1
    45   39   40       1
    46   39   41       1
    47   41   42       1
    48   42   43       1
    49   42   44       1
    50   44   45       1
    51   44   46       1
    52   46   47       1
    53   46   48       1
    54   48   49       1
    55   49   50       1
    56   50   51      ar
    57   50   52      ar
    58   50   53       1
    59   48   84       1
    60    5   54       1
    61    5   55       1
    62    6   56       1
    63    8   57       1
    64    9   58       1
    65   10   59       1
    66   11   60       1
    67   12   61       1
    68   14   62       1
    69   18   63       1
    70   18   64       1
    71   20   65       1
    72   26   66       1
    73   32   67       1
    74   34   68       1
    75   34   69       1
    76   34   70       1
    77   36   71       1
    78   36   72       1
    79   36   73       1
    80   37   74       1
    81   41   75       1
    82   41   76       1
    83   42   77       1
    84   43   78       1
    85   44   79       1
    86   45   80       1
    87   46   81       1
    88   47   82       1
    89   48   83       1
@<TRIPOS>SUBSTRUCTURE
     1 FAD448      1 GROUP             4 B     FAD     0 **** FAD B 448
