@<TRIPOS>MOLECULE
4cr8_NAD_6_ligand
   39    41     1     0     0
SMALL
NO_CHARGES


@<TRIPOS>ATOM
     1 PA          -7.9560   -66.4590    99.9170 P.3          1 NAD1272   0.0000
     2 O1A         -8.4090   -65.7490   101.3700 O.co2        1 NAD1272   0.0000
     3 O2A         -6.9870   -67.6180    99.9510 O.co2        1 NAD1272  -1.0000
     4 O5B         -9.2920   -66.8970    99.0600 O.3          1 NAD1272   0.0000
     5 C5B         -9.0750   -67.5480    97.8100 C.3          1 NAD1272   0.0000
     6 C4B         -9.9060   -68.8670    97.7320 C.3          1 NAD1272   0.0000
     7 O4B         -9.5840   -69.6310    96.5180 O.3          1 NAD1272   0.0000
     8 C3B         -9.7280   -69.8400    98.9490 C.3          1 NAD1272   0.0000
     9 O3B        -10.9510   -70.0100    99.7030 O.3          1 NAD1272   0.0000
    10 C2B         -9.3630   -71.1220    98.3440 C.3          1 NAD1272   0.0000
    11 O2B        -10.0260   -72.2250    98.9870 O.3          1 NAD1272   0.0000
    12 C1B         -9.8390   -70.9760    96.8570 C.3          1 NAD1272   0.0000
    13 N9A         -9.1820   -72.0750    96.1910 N.pl3        1 NAD1272   0.0000
    14 C8A         -7.9240   -72.4800    96.2480 C.2          1 NAD1272   0.0000
    15 N7A         -7.8170   -73.6040    95.5500 N.2          1 NAD1272   0.0000
    16 C5A         -9.0220   -73.8990    95.0770 C.ar         1 NAD1272   0.0000
    17 C6A         -9.4320   -74.8950    94.3450 C.ar         1 NAD1272   0.0000
    18 N6A         -8.5290   -75.8010    93.9780 N.pl3        1 NAD1272   0.0000
    19 N1A        -10.7080   -74.9660    93.9750 N.ar         1 NAD1272   0.0000
    20 C2A        -11.6160   -73.9800    94.3750 C.ar         1 NAD1272   0.0000
    21 N3A        -11.1720   -72.9470    95.1510 N.ar         1 NAD1272   0.0000
    22 C4A         -9.8760   -72.9510    95.4900 C.ar         1 NAD1272   0.0000
    23 O3          -7.3410   -65.2880    99.0530 O.3          1 NAD1272   0.0000
    24 PN          -8.1480   -63.9760    98.4660 P.3          1 NAD1272   0.0000
    25 O1N         -9.5020   -63.7010    99.3040 O.co2        1 NAD1272   0.0000
    26 O2N         -8.5570   -64.3480    97.0930 O.co2        1 NAD1272  -1.0000
    27 O5D         -7.2100   -62.8160    98.6680 O.co2        1 NAD1272  -1.0000
    28 H5B1        -8.1033   -67.7647    97.7156 H            1 NAD1272   0.0000
    29 H5B2        -9.3542   -66.9383    97.0681 H            1 NAD1272   0.0000
    30 H4B        -10.8724   -68.6144    97.6842 H            1 NAD1272   0.0000
    31 H3B         -8.9941   -69.5171    99.5467 H            1 NAD1272   0.0000
    32 H5         -11.6601   -70.3873    99.1073 H            1 NAD1272   0.0000
    33 H2B         -8.3717   -71.2490    98.3775 H            1 NAD1272   0.0000
    34 H7         -10.8990   -72.4003    98.5319 H            1 NAD1272   0.0000
    35 H1B        -10.8266   -71.1297    96.8236 H            1 NAD1272   0.0000
    36 H8A         -7.1813   -72.0187    96.7334 H            1 NAD1272   0.0000
    37 H6A1        -8.8033   -76.5811    93.4157 H            1 NAD1272   0.0000
    38 H6A2        -7.5761   -75.7017    94.2646 H            1 NAD1272   0.0000
    39 H2A        -12.5753   -74.0305    94.0972 H            1 NAD1272   0.0000
@<TRIPOS>BOND
     1    1    2      ar
     2    1    3      ar
     3    1    4       1
     4    1   23       1
     5    4    5       1
     6    5    6       1
     7    6    7       1
     8    6    8       1
     9    7   12       1
    10    8    9       1
    11    8   10       1
    12   10   11       1
    13   10   12       1
    14   12   13       1
    15   13   14       1
    16   13   22       1
    17   14   15       2
    18   15   16       1
    19   16   17      ar
    20   16   22      ar
    21   17   18       1
    22   17   19      ar
    23   19   20      ar
    24   20   21      ar
    25   21   22      ar
    26   23   24       1
    27   24   25      ar
    28   24   26      ar
    29   24   27      ar
    30   20   39       1
    31    5   28       1
    32    5   29       1
    33    6   30       1
    34    8   31       1
    35    9   32       1
    36   10   33       1
    37   11   34       1
    38   12   35       1
    39   14   36       1
    40   18   37       1
    41   18   38       1
@<TRIPOS>SUBSTRUCTURE
     1 NAD1272     1 GROUP             4 F     NAD     0 **** NAD F1272
