@<TRIPOS>MOLECULE
1i2c_UPG_1_ligand
   58    60     1     0     0
SMALL
NO_CHARGES


@<TRIPOS>ATOM
     1 N1          72.0460   103.0560    25.0460 N.pl3        1 UPG402   0.0000
     2 C2          72.2080   104.4290    24.7600 C.2          1 UPG402   0.0000
     3 N3          71.6620   105.2700    25.7290 N.pl3        1 UPG402   0.0000
     4 C4          71.0010   104.8910    26.9050 C.2          1 UPG402   0.0000
     5 C5          70.8690   103.4560    27.1220 C.2          1 UPG402   0.0000
     6 C6          71.3870   102.6200    26.1870 C.2          1 UPG402   0.0000
     7 O2          72.7750   104.8990    23.7620 O.2          1 UPG402   0.0000
     8 O4          70.5800   105.7250    27.6920 O.2          1 UPG402   0.0000
     9 C1C         72.5640   102.0650    24.0750 C.3          1 UPG402   0.0000
    10 C2C         73.5440   101.0280    24.6380 C.3          1 UPG402   0.0000
    11 O2C         74.9050   101.4510    24.7030 O.3          1 UPG402   0.0000
    12 C3C         73.2720    99.8960    23.6500 C.3          1 UPG402   0.0000
    13 C4C         71.7920    99.9610    23.3040 C.3          1 UPG402   0.0000
    14 O4C         71.4250   101.3310    23.5770 O.3          1 UPG402   0.0000
    15 O3C         74.0730   100.0710    22.4790 O.3          1 UPG402   0.0000
    16 C5C         70.8820    99.0330    24.1220 C.3          1 UPG402   0.0000
    17 O5C         71.2200    99.1870    25.5020 O.3          1 UPG402   0.0000
    18 PA          70.2150    98.8550    26.6690 P.3          1 UPG402   0.0000
    19 O1A         70.9080    99.2170    27.9160 O.co2        1 UPG402   0.0000
    20 O2A         68.8630    99.3500    26.3420 O.co2        1 UPG402  -1.0000
    21 O3A         70.1380    97.2700    26.6050 O.3          1 UPG402   0.0000
    22 PB          71.1530    96.0460    26.7980 P.3          1 UPG402   0.0000
    23 O1B         72.2340    96.4390    27.7200 O.co2        1 UPG402   0.0000
    24 O2B         71.4800    95.4300    25.4950 O.co2        1 UPG402  -1.0000
    25 O3B         70.2680    95.0670    27.7220 O.3          1 UPG402   0.0000
    26 C1'         68.8900    94.8580    27.7190 C.3          1 UPG402   0.0000
    27 C2'         68.5270    93.9680    28.8990 C.3          1 UPG402   0.0000
    28 C3'         69.2250    92.6130    28.7430 C.3          1 UPG402   0.0000
    29 C4'         68.7600    91.9880    27.4240 C.3          1 UPG402   0.0000
    30 C5'         69.1130    92.9380    26.2660 C.3          1 UPG402   0.0000
    31 C6'         68.7610    92.2300    24.9670 C.3          1 UPG402   0.0000
    32 O2'         68.9660    94.6320    30.0770 O.3          1 UPG402   0.0000
    33 O3'         68.8700    91.7690    29.8340 O.3          1 UPG402   0.0000
    34 O4'         69.4190    90.7420    27.2220 O.3          1 UPG402   0.0000
    35 O5'         68.4790    94.2250    26.4970 O.3          1 UPG402   0.0000
    36 O6'         69.9290    91.7690    24.2900 O.3          1 UPG402   0.0000
    37 H1          71.7522   106.2526    25.5667 H            1 UPG402   0.0000
    38 H2          70.4105   103.0981    27.9355 H            1 UPG402   0.0000
    39 H3          71.2884   101.6349    26.3279 H            1 UPG402   0.0000
    40 H1C         72.9995   102.5480    23.3154 H            1 UPG402   0.0000
    41 H2C         73.2415   100.7496    25.5496 H            1 UPG402   0.0000
    42 H6          75.3685   101.2153    23.8488 H            1 UPG402   0.0000
    43 H3C         73.4822    99.0161    24.0762 H            1 UPG402   0.0000
    44 H4C         71.6698    99.7720    22.3297 H            1 UPG402   0.0000
    45 H9          74.9479    99.6021    22.6005 H            1 UPG402   0.0000
    46 H5C1        71.0251    98.0839    23.8415 H            1 UPG402   0.0000
    47 H5C2        69.9246    99.2827    23.9772 H            1 UPG402   0.0000
    48 H1'         68.4216    95.7367    27.8106 H            1 UPG402   0.0000
    49 H2'         67.5362    93.8371    28.9328 H            1 UPG402   0.0000
    50 H3'         70.2163    92.7432    28.7247 H            1 UPG402   0.0000
    51 H4'         67.7707    91.8443    27.4508 H            1 UPG402   0.0000
    52 H5'         70.1029    93.0790    26.2780 H            1 UPG402   0.0000
    53 H6'1        68.2707    92.8671    24.3722 H            1 UPG402   0.0000
    54 H6'2        68.1741    91.4469    25.1724 H            1 UPG402   0.0000
    55 H19         69.6298    94.0574    30.5558 H            1 UPG402   0.0000
    56 H20         69.5244    91.8950    30.5796 H            1 UPG402   0.0000
    57 H21         68.8253    90.1322    26.6969 H            1 UPG402   0.0000
    58 H6'         69.9811    92.1955    23.3870 H            1 UPG402   0.0000
@<TRIPOS>BOND
     1    1    2       1
     2    1    6       1
     3    1    9       1
     4    2    3       1
     5    2    7       2
     6    3    4       1
     7    4    5       1
     8    4    8       2
     9    5    6       2
    10    9   10       1
    11    9   14       1
    12   10   11       1
    13   10   12       1
    14   12   13       1
    15   12   15       1
    16   13   14       1
    17   13   16       1
    18   16   17       1
    19   17   18       1
    20   18   19      ar
    21   18   20      ar
    22   18   21       1
    23   21   22       1
    24   22   23      ar
    25   22   24      ar
    26   22   25       1
    27   25   26       1
    28   26   27       1
    29   26   35       1
    30   27   28       1
    31   27   32       1
    32   28   29       1
    33   28   33       1
    34   29   30       1
    35   29   34       1
    36   30   31       1
    37   30   35       1
    38   31   36       1
    39    3   37       1
    40    5   38       1
    41    6   39       1
    42    9   40       1
    43   10   41       1
    44   11   42       1
    45   12   43       1
    46   13   44       1
    47   15   45       1
    48   16   46       1
    49   16   47       1
    50   36   58       1
    51   34   57       1
    52   26   48       1
    53   27   49       1
    54   28   50       1
    55   29   51       1
    56   30   52       1
    57   31   53       1
    58   31   54       1
    59   32   55       1
    60   33   56       1
@<TRIPOS>SUBSTRUCTURE
     1 UPG402      1 GROUP             4 A     UPG     0 **** UPG A 402
