@<TRIPOS>MOLECULE
3kuk_DUR_1_ligand
   28    29     1     0     0
SMALL
NO_CHARGES


@<TRIPOS>ATOM
     1 N1          -5.3240    38.4320  -124.9550 N.pl3        1 DUR311   0.0000
     2 C2          -5.1020    37.0200  -125.2770 C.2          1 DUR311   0.0000
     3 N3          -6.0560    36.0760  -124.8810 N.pl3        1 DUR311   0.0000
     4 C4          -7.2020    36.4590  -124.1960 C.2          1 DUR311   0.0000
     5 C5          -7.4110    37.8100  -123.8920 C.2          1 DUR311   0.0000
     6 C6          -6.4410    38.7860  -124.2920 C.2          1 DUR311   0.0000
     7 O2          -4.1260    36.6500  -125.8550 O.2          1 DUR311   0.0000
     8 O4          -8.1480    35.4890  -123.8220 O.2          1 DUR311   0.0000
     9 C1'         -4.3630    39.4990  -125.2960 C.3          1 DUR311   0.0000
    10 C2'         -3.2170    39.1500  -126.1560 C.3          1 DUR311   0.0000
    11 C3'         -3.4800    39.8090  -127.5030 C.3          1 DUR311   0.0000
    12 C4'         -4.8930    40.5230  -127.2720 C.3          1 DUR311   0.0000
    13 O3'         -2.4520    40.6300  -128.0220 O.3          1 DUR311   0.0000
    14 O4'         -4.9790    40.6610  -125.8130 O.3          1 DUR311   0.0000
    15 C5'         -6.1400    39.9110  -127.8930 C.3          1 DUR311   0.0000
    16 O5'         -7.3260    40.4460  -127.3680 O.3          1 DUR311   0.0000
    17 H1          -5.9103    35.1100  -125.0946 H            1 DUR311   0.0000
    18 H2          -8.2334    38.0923  -123.3980 H            1 DUR311   0.0000
    19 H3          -6.5969    39.7495  -124.0743 H            1 DUR311   0.0000
    20 H1'         -3.9616    39.7799  -124.4242 H            1 DUR311   0.0000
    21 H2'1        -3.1529    38.1577  -126.2622 H            1 DUR311   0.0000
    22 H2'2        -2.3675    39.4984  -125.7597 H            1 DUR311   0.0000
    23 H3'         -3.6287    39.0736  -128.1642 H            1 DUR311   0.0000
    24 H4'         -4.8115    41.4478  -127.6436 H            1 DUR311   0.0000
    25 H9          -2.5843    41.5695  -127.7062 H            1 DUR311   0.0000
    26 H5'1        -6.1311    38.9256  -127.7231 H            1 DUR311   0.0000
    27 H5'2        -6.1220    40.0795  -128.8785 H            1 DUR311   0.0000
    28 H5'         -8.0413    40.4196  -128.0663 H            1 DUR311   0.0000
@<TRIPOS>BOND
     1    1    2       1
     2    1    6       1
     3    1    9       1
     4    2    3       1
     5    2    7       2
     6    3    4       1
     7    4    5       1
     8    4    8       2
     9    5    6       2
    10    9   10       1
    11    9   14       1
    12   10   11       1
    13   11   12       1
    14   11   13       1
    15   12   14       1
    16   12   15       1
    17   15   16       1
    18    3   17       1
    19    5   18       1
    20    6   19       1
    21    9   20       1
    22   10   21       1
    23   10   22       1
    24   11   23       1
    25   12   24       1
    26   13   25       1
    27   15   26       1
    28   15   27       1
    29   16   28       1
@<TRIPOS>SUBSTRUCTURE
     1 DUR311      1 GROUP             4 A     DUR     0 **** DUR A 311
