@<TRIPOS>MOLECULE
3vnh_FUU_1_ligand
   39    41     1     0     0
SMALL
NO_CHARGES


@<TRIPOS>ATOM
     1 CAI        -14.5670   -26.1980     8.0090 C.2          1 FUU301   0.0000
     2 CAD        -15.1610   -26.1390     9.2000 C.2          1 FUU301   0.0000
     3 CAF        -14.6080   -27.0400    10.0080 C.2          1 FUU301   0.0000
     4 OAR        -13.6300   -27.6950     9.3070 O.2          1 FUU301   0.0000
     5 CAY        -13.6300   -27.1400     8.0590 C.2          1 FUU301   0.0000
     6 CAZ        -12.7450   -27.5300     7.0600 C.2          1 FUU301   0.0000
     7 OAS        -12.7360   -26.9400     5.8300 O.2          1 FUU301   0.0000
     8 NAN        -11.7670   -28.4330     7.1100 N.2          1 FUU301   0.0000
     9 NAM        -11.1510   -28.4520     6.0420 N.2          1 FUU301   0.0000
    10 CAX        -11.6870   -27.5580     5.2170 C.2          1 FUU301   0.0000
    11 NAP        -11.2360   -27.2410     4.0060 N.am         1 FUU301   0.0000
    12 CAU        -10.1970   -27.8670     3.4590 C.2          1 FUU301   0.0000
    13 OAB         -9.6190   -28.7940     4.0230 O.2          1 FUU301   0.0000
    14 NAO         -9.8300   -27.4460     2.2520 N.am         1 FUU301   0.0000
    15 CAK         -8.6900   -28.0280     1.5310 C.3          1 FUU301   0.0000
    16 CAV         -7.6240   -26.9450     1.3540 C.ar         1 FUU301   0.0000
    17 CAJ         -7.8920   -25.6460     1.7640 C.ar         1 FUU301   0.0000
    18 CAG         -6.3910   -27.2580     0.7880 C.ar         1 FUU301   0.0000
    19 CAE         -5.4290   -26.2670     0.6340 C.ar         1 FUU301   0.0000
    20 CAH         -5.6970   -24.9670     1.0460 C.ar         1 FUU301   0.0000
    21 CAW         -6.9270   -24.6550     1.6130 C.ar         1 FUU301   0.0000
    22 OAQ         -7.1890   -23.3930     2.0500 O.3          1 FUU301   0.0000
    23 CAL         -6.4480   -22.4290     1.2890 C.3          1 FUU301   0.0000
    24 CAT         -5.6400   -21.5650     2.2610 C.2          1 FUU301   0.0000
    25 OAC         -5.4060   -20.3840     1.9360 O.co2        1 FUU301   0.0000
    26 OAA         -5.2560   -22.0930     3.3290 O.co2        1 FUU301  -1.0000
    27 HAI        -14.7877   -25.6318     7.2148 H            1 FUU301   0.0000
    28 HAD        -15.9039   -25.5169     9.4473 H            1 FUU301   0.0000
    29 HAF        -14.8618   -27.2094    10.9603 H            1 FUU301   0.0000
    30 HAP        -11.6902   -26.5126     3.4930 H            1 FUU301   0.0000
    31 HAO        -10.3481   -26.7076     1.8202 H            1 FUU301   0.0000
    32 HAK1        -8.9894   -28.3563     0.6351 H            1 FUU301   0.0000
    33 HAK2        -8.3123   -28.7905     2.0563 H            1 FUU301   0.0000
    34 HAJ         -8.7790   -25.4224     2.1680 H            1 FUU301   0.0000
    35 HAG         -6.1981   -28.1938     0.4930 H            1 FUU301   0.0000
    36 HAE         -4.5433   -26.4894     0.2265 H            1 FUU301   0.0000
    37 HAH         -5.0038   -24.2550     0.9343 H            1 FUU301   0.0000
    38 HAL1        -7.0781   -21.8528     0.7685 H            1 FUU301   0.0000
    39 HAL2        -5.8289   -22.8989     0.6598 H            1 FUU301   0.0000
@<TRIPOS>BOND
     1    1    2       1
     2    1    5       2
     3    2    3       2
     4    3    4       1
     5    4    5       1
     6    5    6       1
     7    6    7       1
     8    6    8       2
     9    7   10       1
    10    8    9       1
    11    9   10       2
    12   10   11       1
    13   11   12      am
    14   12   13       2
    15   12   14      am
    16   14   15       1
    17   15   16       1
    18   16   17      ar
    19   16   18      ar
    20   17   21      ar
    21   18   19      ar
    22   19   20      ar
    23   20   21      ar
    24   21   22       1
    25   22   23       1
    26   23   24       1
    27   24   25      ar
    28   24   26      ar
    29    1   27       1
    30    2   28       1
    31    3   29       1
    32   11   30       1
    33   14   31       1
    34   15   32       1
    35   15   33       1
    36   17   34       1
    37   18   35       1
    38   19   36       1
    39   20   37       1
    40   23   38       1
    41   23   39       1
@<TRIPOS>SUBSTRUCTURE
     1 FUU301      1 GROUP             4 A     FUU     0 **** FUU A 301
