@<TRIPOS>MOLECULE
3w78_CBD_1_ligand
   68    73     1     0     0
SMALL
NO_CHARGES


@<TRIPOS>ATOM
     1 C1         -86.3470    21.2900   -14.6870 C.ar         1 CBD302   0.0000
     2 SA         -87.0650    21.4360   -16.1140 S.o2         1 CBD302   0.0000
     3 O1A        -87.4640    20.1450   -16.6010 O.co2        1 CBD302   0.0000
     4 O2A        -88.2270    22.2790   -15.9980 O.co2        1 CBD302   0.0000
     5 O3A        -86.0100    22.0900   -17.1760 O.co2        1 CBD302  -1.0000
     6 C2         -85.4810    22.3920   -14.1660 C.ar         1 CBD302   0.0000
     7 N2         -85.2920    23.5240   -14.8880 N.pl3        1 CBD302   0.0000
     8 C3         -84.8280    22.2320   -12.8350 C.ar         1 CBD302   0.0000
     9 C4         -83.9510    23.3000   -12.2630 C.2          1 CBD302   0.0000
    10 O4         -83.7480    24.3600   -12.8950 O.2          1 CBD302   0.0000
    11 C5         -83.3190    23.1030   -10.9260 C.ar         1 CBD302   0.0000
    12 C6         -82.5010    24.0870   -10.3670 C.ar         1 CBD302   0.0000
    13 C7         -81.9180    23.8760    -9.1170 C.ar         1 CBD302   0.0000
    14 C8         -82.1450    22.6930    -8.4080 C.ar         1 CBD302   0.0000
    15 C9         -82.9550    21.6770    -8.9230 C.ar         1 CBD302   0.0000
    16 C10        -83.5580    21.8380   -10.1690 C.ar         1 CBD302   0.0000
    17 C11        -84.4300    20.7730   -10.7450 C.2          1 CBD302   0.0000
    18 O11        -84.6290    19.7190   -10.1050 O.2          1 CBD302   0.0000
    19 C12        -85.0690    20.9700   -12.0800 C.ar         1 CBD302   0.0000
    20 C13        -85.9460    19.9140   -12.6800 C.ar         1 CBD302   0.0000
    21 C14        -86.5400    20.1280   -13.9310 C.ar         1 CBD302   0.0000
    22 NB         -86.1780    18.7660   -11.9800 N.pl3        1 CBD302   0.0000
    23 CB1        -85.5220    15.8870   -14.1730 C.ar         1 CBD302   0.0000
    24 SB         -84.8630    15.5790   -15.5980 S.o2         1 CBD302   0.0000
    25 O1B        -85.5970    14.5380   -16.2590 O.co2        1 CBD302   0.0000
    26 O2B        -84.9020    16.7570   -16.4160 O.co2        1 CBD302   0.0000
    27 O3B        -83.3110    15.1060   -15.3930 O.co2        1 CBD302  -1.0000
    28 CB2        -86.0960    14.7960   -13.3280 C.ar         1 CBD302   0.0000
    29 CB3        -86.6630    15.1380   -12.1000 C.ar         1 CBD302   0.0000
    30 CB4        -86.6710    16.4700   -11.6790 C.ar         1 CBD302   0.0000
    31 CB5        -86.1320    17.4950   -12.4630 C.ar         1 CBD302   0.0000
    32 CB6        -85.5560    17.1980   -13.7020 C.ar         1 CBD302   0.0000
    33 NC         -86.0680    13.5210   -13.7910 N.pl3        1 CBD302   0.0000
    34 NC1        -86.1290    11.2100   -13.7870 N.ar         1 CBD302   0.0000
    35 CC2        -86.1210    10.0100   -13.1660 C.ar         1 CBD302   0.0000
    36 CL         -86.2230     8.4970   -14.1400 Cl           1 CBD302   0.0000
    37 NC3        -86.0400     9.9650   -11.8130 N.ar         1 CBD302   0.0000
    38 CC4        -85.9670    11.1080   -11.0840 C.ar         1 CBD302   0.0000
    39 NC5        -85.9740    12.3080   -11.7250 N.ar         1 CBD302   0.0000
    40 CC6        -86.0550    12.3630   -13.0810 C.ar         1 CBD302   0.0000
    41 ND         -85.8830    11.0040    -9.7290 N.pl3        1 CBD302   0.0000
    42 CD1        -86.9820    11.9790    -7.7130 C.ar         1 CBD302   0.0000
    43 SD         -87.9670    10.7360    -7.4710 S.o2         1 CBD302   0.0000
    44 O1D        -89.2220    10.9730    -8.1270 O.co2        1 CBD302   0.0000
    45 O2D        -87.3700     9.5320    -7.9760 O.co2        1 CBD302   0.0000
    46 O3D        -88.2570    10.5390    -5.8750 O.co2        1 CBD302  -1.0000
    47 CD2        -86.0010    12.0300    -8.8470 C.ar         1 CBD302   0.0000
    48 CD3        -85.1790    13.1510    -8.9660 C.ar         1 CBD302   0.0000
    49 CD4        -85.2870    14.2080    -8.0630 C.ar         1 CBD302   0.0000
    50 CD5        -86.2050    14.1610    -7.0140 C.ar         1 CBD302   0.0000
    51 CD6        -87.0430    13.0620    -6.8380 C.ar         1 CBD302   0.0000
    52 H1         -84.7107    24.2545   -14.5295 H            1 CBD302   0.0000
    53 H2         -85.7339    23.6284   -15.7789 H            1 CBD302   0.0000
    54 H3         -82.3336    24.9402   -10.8610 H            1 CBD302   0.0000
    55 H4         -81.3291    24.5815    -8.7226 H            1 CBD302   0.0000
    56 H5         -81.7182    22.5708    -7.5120 H            1 CBD302   0.0000
    57 H6         -83.1013    20.8377    -8.3993 H            1 CBD302   0.0000
    58 H7         -87.1325    19.4134   -14.3029 H            1 CBD302   0.0000
    59 HB         -86.4054    18.8696   -11.0117 H            1 CBD302   0.0000
    60 HB3        -87.0642    14.4287   -11.5204 H            1 CBD302   0.0000
    61 HB4        -87.0734    16.6969   -10.7921 H            1 CBD302   0.0000
    62 HB6        -85.1648    17.9334   -14.2553 H            1 CBD302   0.0000
    63 HC         -86.0553    13.4205   -14.7859 H            1 CBD302   0.0000
    64 HD         -85.7203    10.0929    -9.3503 H            1 CBD302   0.0000
    65 HD3        -84.5068    13.1968    -9.7050 H            1 CBD302   0.0000
    66 HD4        -84.6989    15.0098    -8.1688 H            1 CBD302   0.0000
    67 HD5        -86.2627    14.9297    -6.3770 H            1 CBD302   0.0000
    68 HD6        -87.6931    13.0502    -6.0782 H            1 CBD302   0.0000
@<TRIPOS>BOND
     1    1    2       1
     2    1    6      ar
     3    1   21      ar
     4    2    3      ar
     5    2    4      ar
     6    2    5      ar
     7    6    7       1
     8    6    8      ar
     9    8    9       1
    10    8   19      ar
    11    9   10       2
    12    9   11       1
    13   11   12      ar
    14   11   16      ar
    15   12   13      ar
    16   13   14      ar
    17   14   15      ar
    18   15   16      ar
    19   16   17       1
    20   17   18       2
    21   17   19       1
    22   19   20      ar
    23   20   21      ar
    24   20   22       1
    25   22   31       1
    26   23   24       1
    27   23   28      ar
    28   23   32      ar
    29   24   25      ar
    30   24   26      ar
    31   24   27      ar
    32   28   29      ar
    33   28   33       1
    34   29   30      ar
    35   30   31      ar
    36   31   32      ar
    37   33   40       1
    38   34   35      ar
    39   34   40      ar
    40   35   36       1
    41   35   37      ar
    42   37   38      ar
    43   38   39      ar
    44   38   41       1
    45   39   40      ar
    46   41   47       1
    47   42   43       1
    48   42   47      ar
    49   42   51      ar
    50   43   44      ar
    51   43   45      ar
    52   43   46      ar
    53   47   48      ar
    54   48   49      ar
    55   49   50      ar
    56   50   51      ar
    57   51   68       1
    58    7   52       1
    59    7   53       1
    60   12   54       1
    61   13   55       1
    62   14   56       1
    63   15   57       1
    64   21   58       1
    65   22   59       1
    66   50   67       1
    67   29   60       1
    68   30   61       1
    69   32   62       1
    70   33   63       1
    71   41   64       1
    72   49   66       1
    73   48   65       1
@<TRIPOS>SUBSTRUCTURE
     1 CBD302      1 GROUP             4 A     CBD     0 **** CBD A 302
