@<TRIPOS>MOLECULE
4gnc_ASO_2_ligand
   23    23     1     0     0
SMALL
NO_CHARGES


@<TRIPOS>ATOM
     1 C1         -14.5710    -3.1430    10.5150 C.3          1 ASO303   0.0000
     2 C2         -14.7100    -1.8420     9.7360 C.3          1 ASO303   0.0000
     3 C3         -14.6420    -2.1400     8.2540 C.3          1 ASO303   0.0000
     4 C4         -13.2920    -2.7640     7.9680 C.3          1 ASO303   0.0000
     5 C5         -13.1380    -4.0250     8.7990 C.3          1 ASO303   0.0000
     6 C6         -11.7510    -4.6350     8.5500 C.3          1 ASO303   0.0000
     7 O2         -15.9600    -1.2170    10.0560 O.3          1 ASO303   0.0000
     8 O3         -14.7410    -0.9110     7.5400 O.3          1 ASO303   0.0000
     9 O4         -13.1620    -3.0670     6.5680 O.3          1 ASO303   0.0000
    10 O5         -13.2920    -3.7190    10.2020 O.3          1 ASO303   0.0000
    11 O6         -11.6130    -5.8230     9.3330 O.3          1 ASO303   0.0000
    12 H1         -15.3003    -3.7747    10.2520 H            1 ASO303   0.0000
    13 H2         -14.6280    -2.9579    11.4961 H            1 ASO303   0.0000
    14 H3         -13.9610    -1.2275     9.9837 H            1 ASO303   0.0000
    15 H4         -15.3790    -2.7610     7.9870 H            1 ASO303   0.0000
    16 H5         -12.5751    -2.1166     8.2267 H            1 ASO303   0.0000
    17 H6         -13.8396    -4.6841     8.5281 H            1 ASO303   0.0000
    18 H7         -11.0445    -3.9776     8.8121 H            1 ASO303   0.0000
    19 H8         -11.6537    -4.8601     7.5805 H            1 ASO303   0.0000
    20 H9         -15.9935    -1.0212    11.0361 H            1 ASO303   0.0000
    21 H10        -14.2374    -0.9841     6.6792 H            1 ASO303   0.0000
    22 H11        -12.7681    -2.2807     6.0920 H            1 ASO303   0.0000
    23 H12        -10.7108    -6.2240     9.1741 H            1 ASO303   0.0000
@<TRIPOS>BOND
     1    1    2       1
     2    1   10       1
     3    2    3       1
     4    2    7       1
     5    3    4       1
     6    3    8       1
     7    4    5       1
     8    4    9       1
     9    5    6       1
    10    5   10       1
    11    6   11       1
    12    1   12       1
    13    1   13       1
    14    2   14       1
    15    3   15       1
    16    4   16       1
    17    5   17       1
    18    6   18       1
    19    6   19       1
    20    7   20       1
    21    8   21       1
    22    9   22       1
    23   11   23       1
@<TRIPOS>SUBSTRUCTURE
     1 ASO303      1 GROUP             4 A     ASO     0 **** ASO A 303
