@<TRIPOS>MOLECULE
2plm_SIB_1_ligand
   46    48     1     0     0
SMALL
NO_CHARGES


@<TRIPOS>ATOM
     1 N           49.1900    29.4690    -0.7320 N.4          1 SIB408   1.0000
     2 CA          49.4150    28.5720    -1.8830 C.3          1 SIB408   0.0000
     3 CB          49.6120    29.3790    -3.1750 C.3          1 SIB408   0.0000
     4 CG          48.3790    30.2170    -3.4930 C.3          1 SIB408   0.0000
     5 SD          46.9360    29.1470    -3.6690 S.3          1 SIB408   0.0000
     6 C           50.6430    27.7290    -1.6610 C.2          1 SIB408   0.0000
     7 OXT         51.3460    27.9080    -0.6930 O.co2        1 SIB408   0.0000
     8 O           50.9560    26.7840    -2.5500 O.co2        1 SIB408  -1.0000
     9 C5'         45.6080    30.3680    -3.6780 C.3          1 SIB408   0.0000
    10 C4'         45.6730    31.1770    -2.3910 C.3          1 SIB408   0.0000
    11 O4'         44.7270    32.2520    -2.4350 O.3          1 SIB408   0.0000
    12 C3'         45.3320    30.3130    -1.1600 C.3          1 SIB408   0.0000
    13 O3'         46.4540    30.2320    -0.2730 O.3          1 SIB408   0.0000
    14 C2'         44.1170    31.0510    -0.5580 C.3          1 SIB408   0.0000
    15 O2'         44.0490    30.9510     0.8600 O.3          1 SIB408   0.0000
    16 C1'         44.3720    32.4750    -1.0700 C.3          1 SIB408   0.0000
    17 N9          43.1940    33.3500    -0.9390 N.pl3        1 SIB408   0.0000
    18 C8          41.9140    32.9960    -0.6220 C.2          1 SIB408   0.0000
    19 N7          41.1530    34.0440    -0.5820 N.2          1 SIB408   0.0000
    20 C5          41.8860    35.1350    -0.8670 C.2          1 SIB408   0.0000
    21 C6          41.6160    36.5190    -0.9620 C.2          1 SIB408   0.0000
    22 O6          40.3590    36.9810    -0.7280 O.2          1 SIB408   0.0000
    23 N1          42.6330    37.3670    -1.2910 N.2          1 SIB408   1.0000
    24 C2          43.8820    36.9190    -1.5200 C.2          1 SIB408   0.0000
    25 N3          44.1740    35.6160    -1.4280 N.pl3        1 SIB408   0.0000
    26 C4          43.2130    34.7050    -1.1080 C.2          1 SIB408   0.0000
    27 H1          49.0645    28.9232     0.0965 H            1 SIB408   0.0000
    28 H2          49.9809    30.0703    -0.6184 H            1 SIB408   0.0000
    29 HA          48.6219    27.9724    -1.9899 H            1 SIB408   0.0000
    30 HB1         49.7816    28.7476    -3.9317 H            1 SIB408   0.0000
    31 HB2         50.3993    29.9856    -3.0642 H            1 SIB408   0.0000
    32 HG1         48.5282    30.7153    -4.3471 H            1 SIB408   0.0000
    33 HG2         48.2203    30.8680    -2.7507 H            1 SIB408   0.0000
    34 H5'1        44.7248    29.9028    -3.7378 H            1 SIB408   0.0000
    35 H5'2        45.7176    30.9773    -4.4633 H            1 SIB408   0.0000
    36 H4'         46.5936    31.5528    -2.2846 H            1 SIB408   0.0000
    37 H3'         45.0623    29.3955    -1.4523 H            1 SIB408   0.0000
    38 H12         46.2139    29.6687     0.5176 H            1 SIB408   0.0000
    39 H2'         43.2739    30.6948    -0.9609 H            1 SIB408   0.0000
    40 H14         43.9797    29.9888     1.1234 H            1 SIB408   0.0000
    41 H1'         45.1465    32.8760    -0.5809 H            1 SIB408   0.0000
    42 H16         41.6073    32.0607    -0.4457 H            1 SIB408   0.0000
    43 H17         42.4460    38.3466    -1.3640 H            1 SIB408   0.0000
    44 H18         44.6020    37.5693    -1.7624 H            1 SIB408   0.0000
    45 H19         48.3722    30.0210    -0.8945 H            1 SIB408   0.0000
    46 H20         45.1101    35.3071    -1.5964 H            1 SIB408   0.0000
@<TRIPOS>BOND
     1    1    2       1
     2    2    3       1
     3    2    6       1
     4    3    4       1
     5    4    5       1
     6    5    9       1
     7    6    7      ar
     8    6    8      ar
     9    9   10       1
    10   10   11       1
    11   10   12       1
    12   11   16       1
    13   12   13       1
    14   12   14       1
    15   14   15       1
    16   14   16       1
    17   16   17       1
    18   17   18       1
    19   17   26       1
    20   18   19       2
    21   19   20       1
    22   20   21       1
    23   20   26       2
    24   21   22       2
    25   21   23       1
    26   23   24       2
    27   24   25       1
    28   25   26       1
    29    1   27       1
    30    1   28       1
    31    2   29       1
    32    3   30       1
    33    3   31       1
    34    4   32       1
    35    4   33       1
    36    1   45       1
    37    9   34       1
    38    9   35       1
    39   10   36       1
    40   12   37       1
    41   13   38       1
    42   14   39       1
    43   15   40       1
    44   16   41       1
    45   18   42       1
    46   23   43       1
    47   24   44       1
    48   25   46       1
@<TRIPOS>SUBSTRUCTURE
     1 SIB408      1 GROUP             4 A     SIB     0 **** SIB A 408
