@<TRIPOS>MOLECULE
3mkn_DNB_1_ligand
   35    36     1     0     0
SMALL
NO_CHARGES


@<TRIPOS>ATOM
     1 O2'         29.1690     3.7880    33.6030 O.3          1 DNB502   0.0000
     2 C2'         27.7760     3.4440    33.7790 C.3          1 DNB502   0.0000
     3 C3'         27.5870     2.2670    34.7420 C.3          1 DNB502   0.0000
     4 O3'         28.7830     1.4840    34.8640 O.3          1 DNB502   0.0000
     5 C1'         27.1530     3.0000    32.4520 C.3          1 DNB502   0.0000
     6 N4'         26.7350     1.6380    32.7260 N.4          1 DNB502   1.0000
     7 C4'         26.5480     1.3480    34.1270 C.3          1 DNB502   0.0000
     8 C5'         25.1330     1.6520    34.6620 C.3          1 DNB502   0.0000
     9 O5'         24.1120     0.9050    33.9870 O.3          1 DNB502   0.0000
    10 C1          25.8820     3.6570    32.0970 C.ar         1 DNB502   0.0000
    11 C6          25.3120     3.3050    30.8700 C.ar         1 DNB502   0.0000
    12 C5          24.0870     3.8480    30.4770 C.ar         1 DNB502   0.0000
    13 C4          23.4300     4.7450    31.3250 C.ar         1 DNB502   0.0000
    14 C3          23.9900     5.0910    32.5630 C.ar         1 DNB502   0.0000
    15 N3          23.3510     5.9700    33.3880 N.pl3        1 DNB502   0.0000
    16 C2          25.2200     4.5450    32.9560 C.ar         1 DNB502   0.0000
    17 N4          22.2390     5.2630    30.9180 N.pl3        1 DNB502   0.0000
    18 H2'         29.3181     4.7334    33.8927 H            1 DNB502   0.0000
    19 H2          27.2802     4.2395    34.1275 H            1 DNB502   0.0000
    20 H3'         27.2847     2.5905    35.6386 H            1 DNB502   0.0000
    21 H4          29.0859     1.4844    35.8170 H            1 DNB502   0.0000
    22 H1'         27.8127     3.0407    31.7016 H            1 DNB502   0.0000
    23 H4'1        27.4326     1.0176    32.3676 H            1 DNB502   0.0000
    24 H4'         26.7846     0.3942    34.3120 H            1 DNB502   0.0000
    25 H5'1        24.9483     2.6273    34.5410 H            1 DNB502   0.0000
    26 H5'2        25.1039     1.4255    35.6356 H            1 DNB502   0.0000
    27 H5'         24.2804    -0.0734    34.1069 H            1 DNB502   0.0000
    28 H11         25.7847     2.6600    30.2696 H            1 DNB502   0.0000
    29 H12         23.6832     3.5976    29.5971 H            1 DNB502   0.0000
    30 H13         23.7556     6.2127    34.2697 H            1 DNB502   0.0000
    31 H14         22.4781     6.3715    33.1110 H            1 DNB502   0.0000
    32 H15         25.6208     4.7865    33.8398 H            1 DNB502   0.0000
    33 H16         21.7473     5.9068    31.5043 H            1 DNB502   0.0000
    34 H17         21.8557     4.9998    30.0327 H            1 DNB502   0.0000
    35 H4'2        25.8690     1.4745    32.2535 H            1 DNB502   0.0000
@<TRIPOS>BOND
     1    1    2       1
     2    2    3       1
     3    2    5       1
     4    3    4       1
     5    3    7       1
     6    5    6       1
     7    5   10       1
     8    6    7       1
     9    7    8       1
    10    8    9       1
    11   10   11      ar
    12   10   16      ar
    13   11   12      ar
    14   12   13      ar
    15   13   14      ar
    16   13   17       1
    17   14   15       1
    18   14   16      ar
    19    1   18       1
    20    2   19       1
    21    3   20       1
    22    4   21       1
    23    5   22       1
    24    6   23       1
    25    7   24       1
    26    8   25       1
    27    8   26       1
    28    9   27       1
    29   11   28       1
    30   12   29       1
    31   15   30       1
    32   15   31       1
    33   16   32       1
    34   17   33       1
    35   17   34       1
    36    6   35       1
@<TRIPOS>SUBSTRUCTURE
     1 DNB502      1 GROUP             4 A     DNB     0 **** DNB A 502
