@<TRIPOS>MOLECULE
1wl4_COA_1_ligand
   80    82     1     0     0
SMALL
NO_CHARGES


@<TRIPOS>ATOM
     1 N1A         14.6690    26.2050    13.3240 N.ar         1 COA1001   0.0000
     2 C2A         15.1320    26.2120    12.0270 C.ar         1 COA1001   0.0000
     3 N3A         14.9400    27.2750    11.1810 N.ar         1 COA1001   0.0000
     4 C4A         14.2700    28.3580    11.6620 C.ar         1 COA1001   0.0000
     5 C5A         13.8220    28.4070    12.9740 C.ar         1 COA1001   0.0000
     6 C6A         13.9790    27.2870    13.8090 C.ar         1 COA1001   0.0000
     7 N6A         13.5870    27.2290    15.0970 N.pl3        1 COA1001   0.0000
     8 N7A         13.1900    29.6040    13.1190 N.2          1 COA1001   0.0000
     9 C8A         13.3160    30.3190    11.9860 C.2          1 COA1001   0.0000
    10 N9A         13.9670    29.5230    11.0610 N.pl3        1 COA1001   0.0000
    11 C1B         14.1320    29.7760     9.6250 C.3          1 COA1001   0.0000
    12 C2B         12.8340    29.7550     8.8460 C.3          1 COA1001   0.0000
    13 O2B         12.4640    28.4430     8.5430 O.3          1 COA1001   0.0000
    14 C3B         13.2430    30.5080     7.6370 C.3          1 COA1001   0.0000
    15 O3B         13.9760    29.6050     6.8610 O.3          1 COA1001   0.0000
    16 P3B         13.8250    29.7070     5.2270 P.3          1 COA1001   0.0000
    17 O7A         12.3170    29.6960     4.9110 O.co2        1 COA1001   0.0000
    18 O8A         14.4840    31.0200     4.7540 O.co2        1 COA1001  -1.0000
    19 O9A         14.5930    28.5260     4.6110 O.co2        1 COA1001  -1.0000
    20 C4B         14.1940    31.5450     8.2270 C.3          1 COA1001   0.0000
    21 O4B         14.5910    31.0840     9.5160 O.3          1 COA1001   0.0000
    22 C5B         13.4850    32.8630     8.4110 C.3          1 COA1001   0.0000
    23 O5B         12.4220    32.6620     9.2930 O.3          1 COA1001   0.0000
    24 P1A         11.1870    33.6310     9.1680 P.3          1 COA1001   0.0000
    25 O1A         10.2040    33.2300    10.3390 O.co2        1 COA1001   0.0000
    26 O2A         10.6730    33.7130     7.7190 O.co2        1 COA1001  -1.0000
    27 O3A         11.9490    35.0330     9.4920 O.3          1 COA1001   0.0000
    28 P2A         11.6450    36.4520     8.7590 P.3          1 COA1001   0.0000
    29 O4A         12.5560    36.6470     7.5460 O.co2        1 COA1001   0.0000
    30 O5A         10.1090    36.5670     8.6990 O.co2        1 COA1001  -1.0000
    31 O6A         12.2670    37.3500     9.9350 O.3          1 COA1001   0.0000
    32 CBP         12.2740    38.5450    11.8700 C.3          1 COA1001   0.0000
    33 CCP         11.6120    37.3380    11.1600 C.3          1 COA1001   0.0000
    34 CDP         13.6660    38.1880    12.3440 C.3          1 COA1001   0.0000
    35 CEP         12.3460    39.7600    10.9170 C.3          1 COA1001   0.0000
    36 CAP         11.3760    38.8240    13.0880 C.3          1 COA1001   0.0000
    37 OAP         11.0700    37.6110    13.7340 O.3          1 COA1001   0.0000
    38 C9P         11.9660    39.7740    14.0780 C.2          1 COA1001   0.0000
    39 O9P         12.2280    41.0220    13.6880 O.2          1 COA1001   0.0000
    40 N8P         12.1450    39.4290    15.3460 N.am         1 COA1001   0.0000
    41 C7P         12.5590    40.3540    16.4010 C.3          1 COA1001   0.0000
    42 C6P         11.4250    41.1540    16.9750 C.3          1 COA1001   0.0000
    43 C5P         11.9420    42.1490    17.9990 C.2          1 COA1001   0.0000
    44 O5P         13.0370    42.7560    17.8310 O.2          1 COA1001   0.0000
    45 N4P         11.1680    42.3110    19.0980 N.am         1 COA1001   0.0000
    46 C3P         11.5760    43.3150    20.0910 C.3          1 COA1001   0.0000
    47 C2P         12.6400    42.6850    20.9540 C.3          1 COA1001   0.0000
    48 S1P         13.5110    43.8930    21.9470 S.3          1 COA1001   0.0000
    49 H2A         15.6271    25.4117    11.6889 H            1 COA1001   0.0000
    50 H6A1        13.0808    27.9912    15.5004 H            1 COA1001   0.0000
    51 H6A2        13.8023    26.4237    15.6494 H            1 COA1001   0.0000
    52 H8A         12.9970    31.2554    11.8395 H            1 COA1001   0.0000
    53 H1B         14.7912    29.1372     9.2283 H            1 COA1001   0.0000
    54 H2B         12.1070    30.2313     9.3406 H            1 COA1001   0.0000
    55 H7          13.1796    28.0137     7.9919 H            1 COA1001   0.0000
    56 H3B         12.4722    30.9143     7.1462 H            1 COA1001   0.0000
    57 H4B         14.9933    31.6594     7.6371 H            1 COA1001   0.0000
    58 H5B1        13.1388    33.1878     7.5309 H            1 COA1001   0.0000
    59 H5B2        14.1174    33.5384     8.7902 H            1 COA1001   0.0000
    60 HCP1        11.7782    36.4855    11.6556 H            1 COA1001   0.0000
    61 HCP2        10.6273    37.4731    11.0499 H            1 COA1001   0.0000
    62 HDP1        14.0762    38.9785    12.7989 H            1 COA1001   0.0000
    63 HDP2        13.6135    37.4237    12.9867 H            1 COA1001   0.0000
    64 HDP3        14.2282    37.9259    11.5596 H            1 COA1001   0.0000
    65 HEP1        12.7752    40.5295    11.3898 H            1 COA1001   0.0000
    66 HEP2        12.8874    39.5200    10.1112 H            1 COA1001   0.0000
    67 HEP3        11.4220    40.0165    10.6335 H            1 COA1001   0.0000
    68 HAP         10.5200    39.2194    12.7548 H            1 COA1001   0.0000
    69 H21         10.2323    37.2281    13.3447 H            1 COA1001   0.0000
    70 H8P         11.9866    38.4741    15.5973 H            1 COA1001   0.0000
    71 H7P1        13.2324    40.9876    16.0201 H            1 COA1001   0.0000
    72 H7P2        12.9787    39.8253    17.1388 H            1 COA1001   0.0000
    73 H6P1        10.7756    40.5348    17.4164 H            1 COA1001   0.0000
    74 H6P2        10.9652    41.6491    16.2378 H            1 COA1001   0.0000
    75 H4P         10.3420    41.7630    19.2304 H            1 COA1001   0.0000
    76 H3P1        10.7919    43.5793    20.6526 H            1 COA1001   0.0000
    77 H3P2        11.9432    44.1228    19.6300 H            1 COA1001   0.0000
    78 H2P1        13.2987    42.2186    20.3636 H            1 COA1001   0.0000
    79 H2P2        12.2082    42.0193    21.5626 H            1 COA1001   0.0000
    80 H1P         12.8985    44.6546    22.1586 H            1 COA1001   0.0000
@<TRIPOS>BOND
     1    1    2      ar
     2    1    6      ar
     3    2    3      ar
     4    3    4      ar
     5    4    5      ar
     6    4   10       1
     7    5    6      ar
     8    5    8       1
     9    6    7       1
    10    8    9       2
    11    9   10       1
    12   10   11       1
    13   11   12       1
    14   11   21       1
    15   12   13       1
    16   12   14       1
    17   14   15       1
    18   14   20       1
    19   15   16       1
    20   16   17      ar
    21   16   18      ar
    22   16   19      ar
    23   20   21       1
    24   20   22       1
    25   22   23       1
    26   23   24       1
    27   24   25      ar
    28   24   26      ar
    29   24   27       1
    30   27   28       1
    31   28   29      ar
    32   28   30      ar
    33   28   31       1
    34   31   33       1
    35   32   33       1
    36   32   34       1
    37   32   35       1
    38   32   36       1
    39   36   37       1
    40   36   38       1
    41   38   39       2
    42   38   40      am
    43   40   41       1
    44   41   42       1
    45   42   43       1
    46   43   44       2
    47   43   45      am
    48   45   46       1
    49   46   47       1
    50   47   48       1
    51    2   49       1
    52    7   50       1
    53    7   51       1
    54    9   52       1
    55   11   53       1
    56   12   54       1
    57   13   55       1
    58   14   56       1
    59   48   80       1
    60   47   79       1
    61   20   57       1
    62   22   58       1
    63   22   59       1
    64   47   78       1
    65   46   77       1
    66   33   60       1
    67   33   61       1
    68   34   62       1
    69   34   63       1
    70   34   64       1
    71   35   65       1
    72   35   66       1
    73   35   67       1
    74   36   68       1
    75   37   69       1
    76   40   70       1
    77   41   71       1
    78   41   72       1
    79   42   73       1
    80   42   74       1
    81   45   75       1
    82   46   76       1
@<TRIPOS>SUBSTRUCTURE
     1 COA1001     1 GROUP             4 A     COA     0 **** COA A1001
