@<TRIPOS>MOLECULE
2erp_GM6_2_ligand
   55    56     1     0     0
SMALL
NO_CHARGES


@<TRIPOS>ATOM
     1 OAG         28.4510    46.5840    87.2440 O.3          1 GM61001  -1.0000
     2 NAF         28.6040    45.3120    86.7770 N.am         1 GM61001   0.0000
     3 CAD         29.7910    44.8720    86.3620 C.2          1 GM61001   0.0000
     4 OAE         30.8190    45.5460    86.3640 O.2          1 GM61001   0.0000
     5 CAC         29.8080    43.4140    85.8690 C.3          1 GM61001   0.0000
     6 CAB         30.7160    42.4880    86.7060 C.3          1 GM61001   0.0000
     7 CAK         30.6590    41.0620    86.1170 C.2          1 GM61001   0.0000
     8 OAL         29.6910    40.3260    86.3330 O.2          1 GM61001   0.0000
     9 NAM         31.7330    40.7140    85.3840 N.am         1 GM61001   0.0000
    10 CAN         31.9310    39.3860    84.7280 C.3          1 GM61001   0.0000
    11 CAY         31.9960    38.2790    85.8100 C.2          1 GM61001   0.0000
    12 OAZ         32.9090    38.2580    86.6400 O.2          1 GM61001   0.0000
    13 NBB         30.9920    37.3880    85.7530 N.am         1 GM61001   0.0000
    14 CBA         30.8580    36.3900    86.8330 C.3          1 GM61001   0.0000
    15 CAO         33.2630    39.3690    83.9440 C.3          1 GM61001   0.0000
    16 CAP         33.3470    40.4020    82.7870 C.2          1 GM61001   0.0000
    17 CAT         32.5670    41.4740    82.5590 C.2          1 GM61001   0.0000
    18 NAU         32.9480    42.1250    81.4590 N.pl3        1 GM61001   0.0000
    19 CAR         33.9940    41.5250    80.8990 C.ar         1 GM61001   0.0000
    20 CAV         34.7790    41.7830    79.7460 C.ar         1 GM61001   0.0000
    21 CAX         35.8590    40.9140    79.4260 C.ar         1 GM61001   0.0000
    22 CAW         36.1400    39.7970    80.2600 C.ar         1 GM61001   0.0000
    23 CAS         35.3470    39.5500    81.4080 C.ar         1 GM61001   0.0000
    24 CAQ         34.2580    40.4190    81.7390 C.ar         1 GM61001   0.0000
    25 CAA         30.2570    42.5120    88.1920 C.3          1 GM61001   0.0000
    26 CAH         31.1170    41.6460    89.1260 C.3          1 GM61001   0.0000
    27 CAJ         30.3330    41.2500    90.3750 C.3          1 GM61001   0.0000
    28 CAI         32.3750    42.4090    89.5460 C.3          1 GM61001   0.0000
    29 HAF         27.8135    44.7004    86.7456 H            1 GM61001   0.0000
    30 HAC1        30.1326    43.4041    84.9232 H            1 GM61001   0.0000
    31 HAC2        28.8744    43.0575    85.9047 H            1 GM61001   0.0000
    32 HAB         31.6568    42.8228    86.6525 H            1 GM61001   0.0000
    33 HAM         32.4543    41.3971    85.2696 H            1 GM61001   0.0000
    34 HAN         31.1713    39.2024    84.1042 H            1 GM61001   0.0000
    35 HBB         30.3451    37.4005    84.9905 H            1 GM61001   0.0000
    36 HBA1        30.0696    35.8032    86.6486 H            1 GM61001   0.0000
    37 HBA2        31.6865    35.8316    86.8755 H            1 GM61001   0.0000
    38 HBA3        30.7272    36.8594    87.7063 H            1 GM61001   0.0000
    39 HAO1        33.3845    38.4555    83.5557 H            1 GM61001   0.0000
    40 HAO2        34.0053    39.5595    84.5864 H            1 GM61001   0.0000
    41 HAT         31.8001    41.7476    83.1396 H            1 GM61001   0.0000
    42 HAU         32.5079    42.9500    81.1046 H            1 GM61001   0.0000
    43 HAV         34.5749    42.5693    79.1629 H            1 GM61001   0.0000
    44 HAX         36.4194    41.0883    78.6163 H            1 GM61001   0.0000
    45 HAW         36.8984    39.1849    80.0360 H            1 GM61001   0.0000
    46 HAS         35.5493    38.7632    81.9912 H            1 GM61001   0.0000
    47 HAA1        29.3145    42.1808    88.2353 H            1 GM61001   0.0000
    48 HAA2        30.2935    43.4570    88.5172 H            1 GM61001   0.0000
    49 HAH         31.3894    40.8165    88.6384 H            1 GM61001   0.0000
    50 HAJ1        30.9108    40.6882    90.9671 H            1 GM61001   0.0000
    51 HAJ2        30.0524    42.0738    90.8676 H            1 GM61001   0.0000
    52 HAJ3        29.5224    40.7287    90.1084 H            1 GM61001   0.0000
    53 HAI1        32.9256    41.8357    90.1528 H            1 GM61001   0.0000
    54 HAI2        32.9091    42.6438    88.7339 H            1 GM61001   0.0000
    55 HAI3        32.1125    43.2461    90.0259 H            1 GM61001   0.0000
@<TRIPOS>BOND
     1    1    2       1
     2    2    3      am
     3    3    4       2
     4    3    5       1
     5    5    6       1
     6    6    7       1
     7    6   25       1
     8    7    8       2
     9    7    9      am
    10    9   10       1
    11   10   11       1
    12   10   15       1
    13   11   12       2
    14   11   13      am
    15   13   14       1
    16   15   16       1
    17   16   17       2
    18   16   24       1
    19   17   18       1
    20   18   19       1
    21   19   20      ar
    22   19   24      ar
    23   20   21      ar
    24   21   22      ar
    25   22   23      ar
    26   23   24      ar
    27   25   26       1
    28   26   27       1
    29   26   28       1
    30   28   55       1
    31    2   29       1
    32    5   30       1
    33    5   31       1
    34    6   32       1
    35    9   33       1
    36   10   34       1
    37   13   35       1
    38   14   36       1
    39   14   37       1
    40   14   38       1
    41   15   39       1
    42   15   40       1
    43   17   41       1
    44   18   42       1
    45   20   43       1
    46   21   44       1
    47   22   45       1
    48   23   46       1
    49   25   47       1
    50   25   48       1
    51   26   49       1
    52   27   50       1
    53   27   51       1
    54   27   52       1
    55   28   53       1
    56   28   54       1
@<TRIPOS>SUBSTRUCTURE
     1 GM61001     1 GROUP             4 B     GM6     0 **** GM6 B1001
