@<TRIPOS>MOLECULE
3lbe_COA_3_ligand
   80    82     1     0     0
SMALL
NO_CHARGES


@<TRIPOS>ATOM
     1 N1A         66.8920    49.1350    23.8410 N.ar         1 COA130   0.0000
     2 C2A         67.7180    49.5180    22.8020 C.ar         1 COA130   0.0000
     3 N3A         68.4650    48.5670    22.1290 N.ar         1 COA130   0.0000
     4 C4A         68.3860    47.2570    22.4880 C.ar         1 COA130   0.0000
     5 C5A         67.5690    46.8540    23.5340 C.ar         1 COA130   0.0000
     6 C6A         66.8140    47.8050    24.2130 C.ar         1 COA130   0.0000
     7 N6A         66.0600    47.4460    25.2520 N.pl3        1 COA130   0.0000
     8 N7A         67.6900    45.5080    23.6610 N.2          1 COA130   0.0000
     9 C8A         68.5640    45.0550    22.7380 C.2          1 COA130   0.0000
    10 N9A         69.0070    46.1320    22.0090 N.pl3        1 COA130   0.0000
    11 C1B         69.9090    46.1170    20.8440 C.3          1 COA130   0.0000
    12 C2B         71.2430    45.4820    21.1900 C.3          1 COA130   0.0000
    13 O2B         72.1430    46.4600    21.6610 O.3          1 COA130   0.0000
    14 C3B         71.6850    44.9170    19.8600 C.3          1 COA130   0.0000
    15 O3B         72.3000    45.9590    19.1500 O.3          1 COA130   0.0000
    16 P3B         73.6860    45.7430    18.3640 P.3          1 COA130   0.0000
    17 O7A         74.7960    45.5360    19.3700 O.co2        1 COA130   0.0000
    18 O8A         73.5800    44.5410    17.4510 O.co2        1 COA130  -1.0000
    19 O9A         73.9440    46.9870    17.5460 O.co2        1 COA130  -1.0000
    20 C4B         70.3880    44.6010    19.1400 C.3          1 COA130   0.0000
    21 O4B         69.3700    45.3540    19.7790 O.3          1 COA130   0.0000
    22 C5B         70.0550    43.1150    19.2030 C.3          1 COA130   0.0000
    23 O5B         70.1700    42.6800    20.5400 O.3          1 COA130   0.0000
    24 P1A         70.0250    41.1200    20.8970 P.3          1 COA130   0.0000
    25 O1A         70.5210    40.8510    22.2920 O.co2        1 COA130   0.0000
    26 O2A         70.7600    40.2820    19.8780 O.co2        1 COA130  -1.0000
    27 O3A         68.4670    40.7960    20.7920 O.3          1 COA130   0.0000
    28 P2A         67.2540    41.5100    21.5700 P.3          1 COA130   0.0000
    29 O4A         67.7120    42.2470    22.8060 O.co2        1 COA130   0.0000
    30 O5A         66.2690    40.3990    21.8480 O.co2        1 COA130  -1.0000
    31 O6A         66.6900    42.5490    20.4720 O.3          1 COA130   0.0000
    32 CBP         65.5460    42.7280    18.4010 C.3          1 COA130   0.0000
    33 CCP         65.4140    42.3800    19.8810 C.3          1 COA130   0.0000
    34 CDP         64.1700    42.8010    17.7470 C.3          1 COA130   0.0000
    35 CEP         66.2160    44.0940    18.2760 C.3          1 COA130   0.0000
    36 CAP         66.4030    41.6380    17.7450 C.3          1 COA130   0.0000
    37 OAP         65.8040    40.3700    17.9240 O.3          1 COA130   0.0000
    38 C9P         66.5900    41.8830    16.2710 C.2          1 COA130   0.0000
    39 O9P         67.6080    42.7400    15.8450 O.2          1 COA130   0.0000
    40 N8P         65.7620    41.2830    15.4220 N.am         1 COA130   0.0000
    41 C7P         65.8200    41.5730    13.9880 C.3          1 COA130   0.0000
    42 C6P         64.8470    42.6750    13.5630 C.3          1 COA130   0.0000
    43 C5P         64.7510    42.7740    12.0470 C.2          1 COA130   0.0000
    44 O5P         65.7580    42.6370    11.3300 O.2          1 COA130   0.0000
    45 N4P         63.5450    43.0220    11.5320 N.am         1 COA130   0.0000
    46 C3P         63.3370    43.1700    10.0960 C.3          1 COA130   0.0000
    47 C2P         63.9740    44.4310     9.5030 C.3          1 COA130   0.0000
    48 S1P         63.4210    45.9710    10.2710 S.3          1 COA130   0.0000
    49 H2A         67.7760    50.4804    22.5367 H            1 COA130   0.0000
    50 H6A1        66.0039    46.4844    25.5205 H            1 COA130   0.0000
    51 H6A2        65.5504    48.1383    25.7629 H            1 COA130   0.0000
    52 H8A         68.8406    44.1029    22.6076 H            1 COA130   0.0000
    53 H1B         70.0614    47.0552    20.5331 H            1 COA130   0.0000
    54 H2B         71.1254    44.7530    21.8644 H            1 COA130   0.0000
    55 H7          72.2846    47.1515    20.9526 H            1 COA130   0.0000
    56 H3B         72.2761    44.1164    19.9586 H            1 COA130   0.0000
    57 H4B         70.4609    44.8850    18.1839 H            1 COA130   0.0000
    58 H5B1        70.6922    42.6030    18.6269 H            1 COA130   0.0000
    59 H5B2        69.1203    42.9660    18.8802 H            1 COA130   0.0000
    60 HCP1        64.7519    42.9892    20.3175 H            1 COA130   0.0000
    61 HCP2        65.1128    41.4320    19.9835 H            1 COA130   0.0000
    62 HDP1        64.2728    43.0296    16.7789 H            1 COA130   0.0000
    63 HDP2        63.7123    41.9161    17.8338 H            1 COA130   0.0000
    64 HDP3        63.6228    43.5052    18.1995 H            1 COA130   0.0000
    65 HEP1        66.3080    44.3330    17.3093 H            1 COA130   0.0000
    66 HEP2        65.6573    44.7828    18.7380 H            1 COA130   0.0000
    67 HEP3        67.1216    44.0610    18.6988 H            1 COA130   0.0000
    68 HAP         67.3015    41.6313    18.1839 H            1 COA130   0.0000
    69 H21         66.4295    39.7739    18.4275 H            1 COA130   0.0000
    70 H8P         65.0916    40.6259    15.7666 H            1 COA130   0.0000
    71 H7P1        65.5964    40.7384    13.4845 H            1 COA130   0.0000
    72 H7P2        66.7494    41.8620    13.7583 H            1 COA130   0.0000
    73 H6P1        65.1666    43.5499    13.9269 H            1 COA130   0.0000
    74 H6P2        63.9412    42.4706    13.9341 H            1 COA130   0.0000
    75 H4P         62.7620    43.1088    12.1480 H            1 COA130   0.0000
    76 H3P1        62.3528    43.2029     9.9222 H            1 COA130   0.0000
    77 H3P2        63.7301    42.3731     9.6372 H            1 COA130   0.0000
    78 H2P1        63.7493    44.4677     8.5293 H            1 COA130   0.0000
    79 H2P2        64.9655    44.3635     9.6140 H            1 COA130   0.0000
    80 H1P         64.1543    46.6492    10.2236 H            1 COA130   0.0000
@<TRIPOS>BOND
     1    1    2      ar
     2    1    6      ar
     3    2    3      ar
     4    3    4      ar
     5    4    5      ar
     6    4   10       1
     7    5    6      ar
     8    5    8       1
     9    6    7       1
    10    8    9       2
    11    9   10       1
    12   10   11       1
    13   11   12       1
    14   11   21       1
    15   12   13       1
    16   12   14       1
    17   14   15       1
    18   14   20       1
    19   15   16       1
    20   16   17      ar
    21   16   18      ar
    22   16   19      ar
    23   20   21       1
    24   20   22       1
    25   22   23       1
    26   23   24       1
    27   24   25      ar
    28   24   26      ar
    29   24   27       1
    30   27   28       1
    31   28   29      ar
    32   28   30      ar
    33   28   31       1
    34   31   33       1
    35   32   33       1
    36   32   34       1
    37   32   35       1
    38   32   36       1
    39   36   37       1
    40   36   38       1
    41   38   39       2
    42   38   40      am
    43   40   41       1
    44   41   42       1
    45   42   43       1
    46   43   44       2
    47   43   45      am
    48   45   46       1
    49   46   47       1
    50   47   48       1
    51    2   49       1
    52    7   50       1
    53    7   51       1
    54    9   52       1
    55   11   53       1
    56   12   54       1
    57   13   55       1
    58   14   56       1
    59   48   80       1
    60   47   79       1
    61   20   57       1
    62   22   58       1
    63   22   59       1
    64   47   78       1
    65   46   77       1
    66   33   60       1
    67   33   61       1
    68   34   62       1
    69   34   63       1
    70   34   64       1
    71   35   65       1
    72   35   66       1
    73   35   67       1
    74   36   68       1
    75   37   69       1
    76   40   70       1
    77   41   71       1
    78   41   72       1
    79   42   73       1
    80   42   74       1
    81   45   75       1
    82   46   76       1
@<TRIPOS>SUBSTRUCTURE
     1 COA130      1 GROUP             4 C     COA     0 **** COA C 130
