@<TRIPOS>MOLECULE
3lm1_LEC_1_ligand
   42    43     1     0     0
SMALL
NO_CHARGES


@<TRIPOS>ATOM
     1 C8          30.2490   127.3070    16.2510 C.3          1 LEC134   0.0000
     2 C7          29.6740   128.7160    16.3010 C.2          1 LEC134   0.0000
     3 O7          30.4320   129.6900    16.1530 O.2          1 LEC134   0.0000
     4 N2          28.3540   128.8840    16.5050 N.am         1 LEC134   0.0000
     5 C2          27.7340   130.2050    16.5670 C.3          1 LEC134   0.0000
     6 C3          27.3480   130.5900    18.0240 C.3          1 LEC134   0.0000
     7 O3          28.5150   130.5730    18.8630 O.3          1 LEC134   0.0000
     8 C4          26.7010   131.9900    18.0300 C.3          1 LEC134   0.0000
     9 O4          27.6740   132.9150    17.5380 O.3          1 LEC134   0.0000
    10 C5          25.4420   131.9770    17.1150 C.3          1 LEC134   0.0000
    11 C6          24.7440   133.3600    17.0830 C.3          1 LEC134   0.0000
    12 O6          25.4210   134.2650    16.2240 O.3          1 LEC134   0.0000
    13 O5          25.8210   131.5710    15.7490 O.3          1 LEC134   0.0000
    14 C1          26.4800   130.2440    15.6770 C.3          1 LEC134   0.0000
    15 O1          25.5480   129.2440    16.0880 O.3          1 LEC134   0.0000
    16 C1'         24.3400   128.7960    15.4740 C.ar         1 LEC134   0.0000
    17 C2'         24.2290   127.4540    15.0140 C.ar         1 LEC134   0.0000
    18 C3'         23.0300   127.0180    14.4040 C.ar         1 LEC134   0.0000
    19 C4'         21.9210   127.9180    14.2500 C.ar         1 LEC134   0.0000
    20 N1'         20.7350   127.4870    13.6420 N.2          1 LEC134   1.0000
    21 O2'         19.7640   128.2750    13.5030 O.co2        1 LEC134   0.0000
    22 O1'         20.6340   126.3150    13.2240 O.co2        1 LEC134  -1.0000
    23 C5'         22.0350   129.2560    14.7120 C.ar         1 LEC134   0.0000
    24 C6'         23.2390   129.6970    15.3230 C.ar         1 LEC134   0.0000
    25 H1          29.5144   126.6422    16.3863 H            1 LEC134   0.0000
    26 H2          30.6778   127.1534    15.3607 H            1 LEC134   0.0000
    27 H3          30.9325   127.2001    16.9731 H            1 LEC134   0.0000
    28 H4          27.7771   128.0751    16.6182 H            1 LEC134   0.0000
    29 H5          28.3880   130.8789    16.2234 H            1 LEC134   0.0000
    30 H6          26.6874   129.9248    18.3721 H            1 LEC134   0.0000
    31 H7          28.2578   130.8215    19.7969 H            1 LEC134   0.0000
    32 H8          26.4392   132.2381    18.9627 H            1 LEC134   0.0000
    33 H9          27.5223   133.8114    17.9546 H            1 LEC134   0.0000
    34 H10         24.7956   131.3051    17.4765 H            1 LEC134   0.0000
    35 H11         24.7307   133.7387    18.0084 H            1 LEC134   0.0000
    36 H12         23.8058   133.2430    16.7572 H            1 LEC134   0.0000
    37 H13         26.1139   134.7637    16.7447 H            1 LEC134   0.0000
    38 H14         26.7489   130.0667    14.7303 H            1 LEC134   0.0000
    39 H2'         24.9961   126.8215    15.1217 H            1 LEC134   0.0000
    40 H3'         22.9536   126.0760    14.0773 H            1 LEC134   0.0000
    41 H5'         21.2672   129.8880    14.6071 H            1 LEC134   0.0000
    42 H6'         23.3173   130.6393    15.6483 H            1 LEC134   0.0000
@<TRIPOS>BOND
     1    1    2       1
     2    2    3       2
     3    2    4      am
     4    4    5       1
     5    5    6       1
     6    5   14       1
     7    6    7       1
     8    6    8       1
     9    8    9       1
    10    8   10       1
    11   10   11       1
    12   10   13       1
    13   11   12       1
    14   13   14       1
    15   14   15       1
    16   15   16       1
    17   16   17      ar
    18   16   24      ar
    19   17   18      ar
    20   18   19      ar
    21   19   20       1
    22   19   23      ar
    23   20   21      ar
    24   20   22      ar
    25   23   24      ar
    26    1   25       1
    27    1   26       1
    28    1   27       1
    29    4   28       1
    30    5   29       1
    31    6   30       1
    32    7   31       1
    33    8   32       1
    34    9   33       1
    35   10   34       1
    36   11   35       1
    37   11   36       1
    38   12   37       1
    39   14   38       1
    40   17   39       1
    41   18   40       1
    42   23   41       1
    43   24   42       1
@<TRIPOS>SUBSTRUCTURE
     1 LEC134      1 GROUP             4 A     LEC     0 **** LEC A 134
