@<TRIPOS>MOLECULE
1u59_STU_1_ligand
   62    69     1     0     0
SMALL
NO_CHARGES


@<TRIPOS>ATOM
     1 O4           9.3440     4.4400    52.6750 O.3          1 STU100   0.0000
     2 C25          9.1070     5.7860    53.1290 C.3          1 STU100   0.0000
     3 C24          9.1140     6.8570    51.9850 C.3          1 STU100   0.0000
     4 C23          9.5820     6.4060    50.5740 C.3          1 STU100   0.0000
     5 C22         10.8130     5.4580    50.7940 C.3          1 STU100   0.0000
     6 C21         10.4830     4.1680    51.7400 C.3          1 STU100   0.0000
     7 C26          9.8400     3.0430    50.8720 C.3          1 STU100   0.0000
     8 N2          11.7100     3.8090    52.5710 N.pl3        1 STU100   0.0000
     9 C18         11.9810     4.3510    53.8330 C.ar         1 STU100   0.0000
    10 C19         11.1950     5.3250    54.6270 C.ar         1 STU100   0.0000
    11 C6          11.6520     5.7800    55.9050 C.ar         1 STU100   0.0000
    12 C7          12.9240     5.2440    56.4070 C.ar         1 STU100   0.0000
    13 C10         13.6730     4.2960    55.6400 C.ar         1 STU100   0.0000
    14 C11         13.2150     3.8430    54.3560 C.ar         1 STU100   0.0000
    15 C12         13.7300     2.9310    53.3740 C.ar         1 STU100   0.0000
    16 C17         12.7910     2.9110    52.2610 C.ar         1 STU100   0.0000
    17 C16         13.0810     2.0490    51.0900 C.ar         1 STU100   0.0000
    18 C15         14.2640     1.2580    51.0790 C.ar         1 STU100   0.0000
    19 C14         15.1960     1.2830    52.1980 C.ar         1 STU100   0.0000
    20 C13         14.9460     2.1030    53.3350 C.ar         1 STU100   0.0000
    21 C9          14.9220     3.9410    56.4180 C.3          1 STU100   0.0000
    22 N1          14.7940     4.7350    57.6030 N.am         1 STU100   0.0000
    23 C8          13.6680     5.5040    57.6540 C.2          1 STU100   0.0000
    24 O5          13.3300     6.2860    58.5780 O.2          1 STU100   0.0000
    25 C5          10.6790     6.7130    56.3930 C.ar         1 STU100   0.0000
    26 C20          9.6460     6.7910    55.3940 C.ar         1 STU100   0.0000
    27 C1           8.4340     7.6600    55.5150 C.ar         1 STU100   0.0000
    28 C2           8.3910     8.4240    56.7300 C.ar         1 STU100   0.0000
    29 C3           9.4080     8.3620    57.7380 C.ar         1 STU100   0.0000
    30 C4          10.5770     7.5170    57.6210 C.ar         1 STU100   0.0000
    31 N3           9.9760     5.9330    54.3140 N.pl3        1 STU100   0.0000
    32 O6          11.8280     6.2980    51.4740 O.3          1 STU100   0.0000
    33 C27         13.1780     6.2910    50.9420 C.3          1 STU100   0.0000
    34 N4          10.0190     7.5100    49.6830 N.4          1 STU100   1.0000
    35 C28          9.8970     7.1980    48.2210 C.3          1 STU100   0.0000
    36 H1           8.1724     5.7847    53.4847 H            1 STU100   0.0000
    37 H2           9.7166     7.6002    52.2758 H            1 STU100   0.0000
    38 H3           8.1798     7.2018    51.8934 H            1 STU100   0.0000
    39 H4           8.8464     5.8945    50.1298 H            1 STU100   0.0000
    40 H5          11.1653     5.1492    49.9105 H            1 STU100   0.0000
    41 H6          10.4941     2.7427    50.1777 H            1 STU100   0.0000
    42 H7           9.5958     2.2694    51.4567 H            1 STU100   0.0000
    43 H8           9.0179     3.3956    50.4250 H            1 STU100   0.0000
    44 H9          12.4505     2.0237    50.3143 H            1 STU100   0.0000
    45 H10         14.4586     0.6754    50.2899 H            1 STU100   0.0000
    46 H11         16.0206     0.7181    52.1675 H            1 STU100   0.0000
    47 H12         15.5904     2.1161    54.0995 H            1 STU100   0.0000
    48 H13         15.7462     4.1861    55.9075 H            1 STU100   0.0000
    49 H14         14.9441     2.9658    56.6384 H            1 STU100   0.0000
    50 H15         15.4755     4.7265    58.3347 H            1 STU100   0.0000
    51 H16          7.7209     7.7045    54.8154 H            1 STU100   0.0000
    52 H17          7.6107     9.0310    56.8807 H            1 STU100   0.0000
    53 H18          9.3054     8.9266    58.5569 H            1 STU100   0.0000
    54 H19         11.2764     7.4815    58.3349 H            1 STU100   0.0000
    55 H20         13.7556     6.8955    51.4906 H            1 STU100   0.0000
    56 H21         13.5440     5.3609    50.9739 H            1 STU100   0.0000
    57 H22         13.1647     6.6117    49.9949 H            1 STU100   0.0000
    58 H23         10.9775     7.7142    49.8821 H            1 STU100   0.0000
    59 H24         10.2078     7.9833    47.6855 H            1 STU100   0.0000
    60 H25         10.4603     6.4013    48.0020 H            1 STU100   0.0000
    61 H26          8.9416     7.0014    48.0007 H            1 STU100   0.0000
    62 H27          9.4587     8.3143    49.8808 H            1 STU100   0.0000
@<TRIPOS>BOND
     1    1    2       1
     2    1    6       1
     3    2    3       1
     4    2   31       1
     5    3    4       1
     6    4    5       1
     7    4   34       1
     8    5    6       1
     9    5   32       1
    10    6    7       1
    11    6    8       1
    12    8    9       1
    13    8   16       1
    14    9   10      ar
    15    9   14      ar
    16   10   11      ar
    17   10   31       1
    18   11   12      ar
    19   11   25       1
    20   12   13      ar
    21   12   23       1
    22   13   14      ar
    23   13   21       1
    24   14   15       1
    25   15   16      ar
    26   15   20      ar
    27   16   17      ar
    28   17   18      ar
    29   18   19      ar
    30   19   20      ar
    31   21   22       1
    32   22   23      am
    33   23   24       2
    34   25   26      ar
    35   25   30      ar
    36   26   27      ar
    37   26   31       1
    38   27   28      ar
    39   28   29      ar
    40   29   30      ar
    41   32   33       1
    42   34   35       1
    43    2   36       1
    44    3   37       1
    45    3   38       1
    46    4   39       1
    47    5   40       1
    48    7   41       1
    49    7   42       1
    50    7   43       1
    51   17   44       1
    52   18   45       1
    53   19   46       1
    54   20   47       1
    55   21   48       1
    56   21   49       1
    57   22   50       1
    58   27   51       1
    59   28   52       1
    60   29   53       1
    61   30   54       1
    62   33   55       1
    63   33   56       1
    64   33   57       1
    65   34   58       1
    66   35   59       1
    67   35   60       1
    68   35   61       1
    69   34   62       1
@<TRIPOS>SUBSTRUCTURE
     1 STU100      1 GROUP             4 A     STU     0 **** STU A 100
