@<TRIPOS>MOLECULE
4fr4_STU_5_ligand
   62    69     1     0     0
SMALL
NO_CHARGES


@<TRIPOS>ATOM
     1 O4         -24.7090   234.2770   -90.0620 O.3          1 STU401   0.0000
     2 C25        -25.8710   234.1910   -90.8850 C.3          1 STU401   0.0000
     3 C24        -26.5760   232.8380   -90.8460 C.3          1 STU401   0.0000
     4 C23        -25.9640   231.9120   -89.8270 C.3          1 STU401   0.0000
     5 C22        -24.5230   231.8140   -90.1320 C.3          1 STU401   0.0000
     6 C21        -23.8260   233.1660   -89.9970 C.3          1 STU401   0.0000
     7 C26        -23.1620   233.2940   -88.6170 C.3          1 STU401   0.0000
     8 N2         -22.7960   233.2460   -91.0670 N.pl3        1 STU401   0.0000
     9 C18        -23.0350   233.7200   -92.3050 C.2          1 STU401   0.0000
    10 C19        -24.2710   234.3300   -92.8800 C.2          1 STU401   0.0000
    11 C6         -24.2600   234.8050   -94.2310 C.2          1 STU401   0.0000
    12 C7         -22.9700   234.6710   -94.9900 C.2          1 STU401   0.0000
    13 C10        -21.7900   234.0100   -94.4870 C.2          1 STU401   0.0000
    14 C11        -21.8360   233.5410   -93.0850 C.2          1 STU401   0.0000
    15 C12        -20.8900   232.8960   -92.2150 C.ar         1 STU401   0.0000
    16 C17        -21.5490   232.6580   -90.9360 C.ar         1 STU401   0.0000
    17 C16        -20.7960   232.0710   -89.9450 C.ar         1 STU401   0.0000
    18 C15        -19.4710   231.6980   -90.1990 C.ar         1 STU401   0.0000
    19 C14        -18.8830   231.9010   -91.4440 C.ar         1 STU401   0.0000
    20 C13        -19.5930   232.5060   -92.4630 C.ar         1 STU401   0.0000
    21 C9         -20.7250   233.9760   -95.4570 C.2          1 STU401   0.0000
    22 N1         -21.3560   234.6200   -96.6520 N.pl3        1 STU401   0.0000
    23 C8         -22.6480   234.9490   -96.3920 C.2          1 STU401   0.0000
    24 O5         -23.4160   235.5600   -97.2220 O.3          1 STU401   0.0000
    25 C5         -25.5680   235.3550   -94.4310 C.ar         1 STU401   0.0000
    26 C20        -26.3240   235.1750   -93.1680 C.ar         1 STU401   0.0000
    27 C1         -27.6390   235.6230   -93.1160 C.ar         1 STU401   0.0000
    28 C2         -28.2080   236.2180   -94.2470 C.ar         1 STU401   0.0000
    29 C3         -27.4700   236.3860   -95.4370 C.ar         1 STU401   0.0000
    30 C4         -26.1480   235.9240   -95.5480 C.ar         1 STU401   0.0000
    31 N3         -25.4960   234.5380   -92.2710 N.pl3        1 STU401   0.0000
    32 O6         -24.4080   231.3330   -91.4600 O.3          1 STU401   0.0000
    33 C27        -23.7400   230.0730   -91.5100 C.3          1 STU401   0.0000
    34 N4         -26.5260   230.5540   -89.8570 N.4          1 STU401   1.0000
    35 C28        -27.7000   230.2180   -89.0690 C.3          1 STU401   0.0000
    36 H1         -26.5207   234.8806   -90.5651 H            1 STU401   0.0000
    37 H2         -26.5100   232.4134   -91.7490 H            1 STU401   0.0000
    38 H3         -27.5382   232.9818   -90.6148 H            1 STU401   0.0000
    39 H4         -26.0835   232.2998   -88.9130 H            1 STU401   0.0000
    40 H5         -24.0975   231.1599   -89.5066 H            1 STU401   0.0000
    41 H6         -22.5164   232.5416   -88.4867 H            1 STU401   0.0000
    42 H7         -22.6742   234.1652   -88.5613 H            1 STU401   0.0000
    43 H8         -23.8633   233.2585   -87.9051 H            1 STU401   0.0000
    44 H9         -21.1958   231.9108   -89.0425 H            1 STU401   0.0000
    45 H10        -18.9342   231.2757   -89.4686 H            1 STU401   0.0000
    46 H11        -17.9403   231.6070   -91.6020 H            1 STU401   0.0000
    47 H12        -19.1752   232.6570   -93.3589 H            1 STU401   0.0000
    48 H13        -19.7983   233.6137   -95.3571 H            1 STU401   0.0000
    49 H14        -20.8906   234.7852   -97.5216 H            1 STU401   0.0000
    50 H15        -24.3132   235.8872   -96.9253 H            1 STU401   0.0000
    51 H16        -28.1737   235.5208   -92.2771 H            1 STU401   0.0000
    52 H17        -29.1572   236.5305   -94.2110 H            1 STU401   0.0000
    53 H18        -27.8964   236.8432   -96.2175 H            1 STU401   0.0000
    54 H19        -25.6434   236.0044   -96.4076 H            1 STU401   0.0000
    55 H20        -23.6776   229.7662   -92.4597 H            1 STU401   0.0000
    56 H21        -22.8202   230.1680   -91.1293 H            1 STU401   0.0000
    57 H22        -24.2541   229.4018   -90.9760 H            1 STU401   0.0000
    58 H23        -25.7971   229.9369   -89.5605 H            1 STU401   0.0000
    59 H24        -27.9355   229.2571   -89.2148 H            1 STU401   0.0000
    60 H25        -27.5058   230.3702   -88.0999 H            1 STU401   0.0000
    61 H26        -28.4665   230.7954   -89.3500 H            1 STU401   0.0000
    62 H27        -26.7579   230.3621   -90.8106 H            1 STU401   0.0000
@<TRIPOS>BOND
     1    1    2       1
     2    1    6       1
     3    2    3       1
     4    2   31       1
     5    3    4       1
     6    4    5       1
     7    4   34       1
     8    5    6       1
     9    5   32       1
    10    6    7       1
    11    6    8       1
    12    8    9       1
    13    8   16       1
    14    9   10       1
    15    9   14       2
    16   10   11       2
    17   10   31       1
    18   11   12       1
    19   11   25       1
    20   12   13       1
    21   12   23       2
    22   13   14       1
    23   13   21       2
    24   14   15       1
    25   15   16      ar
    26   15   20      ar
    27   16   17      ar
    28   17   18      ar
    29   18   19      ar
    30   19   20      ar
    31   21   22       1
    32   22   23       1
    33   23   24       1
    34   25   26      ar
    35   25   30      ar
    36   26   27      ar
    37   26   31       1
    38   27   28      ar
    39   28   29      ar
    40   29   30      ar
    41   32   33       1
    42   34   35       1
    43    2   36       1
    44    3   37       1
    45    3   38       1
    46    4   39       1
    47    5   40       1
    48    7   41       1
    49    7   42       1
    50    7   43       1
    51   17   44       1
    52   18   45       1
    53   19   46       1
    54   20   47       1
    55   21   48       1
    56   22   49       1
    57   24   50       1
    58   27   51       1
    59   28   52       1
    60   29   53       1
    61   30   54       1
    62   33   55       1
    63   33   56       1
    64   33   57       1
    65   34   58       1
    66   35   59       1
    67   35   60       1
    68   35   61       1
    69   34   62       1
@<TRIPOS>SUBSTRUCTURE
     1 STU401      1 GROUP             4 E     STU     0 **** STU E 401
