@<TRIPOS>MOLECULE
2hun_NAD_1_ligand
   70    74     1     0     0
SMALL
NO_CHARGES


@<TRIPOS>ATOM
     1 PA          22.3420    77.4650    23.2840 P.3          1 NAD801   0.0000
     2 O1A         23.0510    78.4070    22.4040 O.co2        1 NAD801   0.0000
     3 O2A         21.8600    77.9250    24.6170 O.co2        1 NAD801  -1.0000
     4 O5B         23.3270    76.2260    23.5410 O.3          1 NAD801   0.0000
     5 C5B         23.9370    75.4660    22.4870 C.3          1 NAD801   0.0000
     6 C4B         24.8770    74.5010    23.2220 C.3          1 NAD801   0.0000
     7 O4B         25.5290    73.6250    22.2820 O.3          1 NAD801   0.0000
     8 C3B         26.0000    75.2720    23.9730 C.3          1 NAD801   0.0000
     9 O3B         26.1600    74.7510    25.3030 O.3          1 NAD801   0.0000
    10 C2B         27.2190    75.0960    23.0490 C.3          1 NAD801   0.0000
    11 O2B         28.5030    75.1760    23.6680 O.3          1 NAD801   0.0000
    12 C1B         26.9430    73.7320    22.4150 C.3          1 NAD801   0.0000
    13 N9A         27.5620    73.5470    21.0840 N.pl3        1 NAD801   0.0000
    14 C8A         27.4520    74.3290    19.9940 C.2          1 NAD801   0.0000
    15 N7A         28.1680    73.8040    19.0010 N.2          1 NAD801   0.0000
    16 C5A         28.7410    72.6870    19.4390 C.ar         1 NAD801   0.0000
    17 C6A         29.6030    71.7100    18.8680 C.ar         1 NAD801   0.0000
    18 N6A         30.0420    71.7680    17.6180 N.pl3        1 NAD801   0.0000
    19 N1A         30.0010    70.6360    19.6990 N.ar         1 NAD801   0.0000
    20 C2A         29.5550    70.5590    21.0270 C.ar         1 NAD801   0.0000
    21 N3A         28.7450    71.4810    21.5640 N.ar         1 NAD801   0.0000
    22 C4A         28.3510    72.5170    20.7790 C.ar         1 NAD801   0.0000
    23 O3          21.0200    77.1130    22.4750 O.3          1 NAD801   0.0000
    24 PN          19.7190    76.2460    22.7240 P.3          1 NAD801   0.0000
    25 O1N         18.6390    77.2660    22.5910 O.co2        1 NAD801   0.0000
    26 O2N         19.7550    75.5450    24.0240 O.co2        1 NAD801  -1.0000
    27 O5D         19.5990    75.2980    21.4200 O.3          1 NAD801   0.0000
    28 C5D         19.5320    73.8700    21.4690 C.3          1 NAD801   0.0000
    29 C4D         18.9870    73.3480    20.1150 C.3          1 NAD801   0.0000
    30 O4D         17.5910    73.6600    19.9730 O.3          1 NAD801   0.0000
    31 C3D         19.7300    73.9410    18.9110 C.3          1 NAD801   0.0000
    32 O3D         19.9800    72.8750    17.9580 O.3          1 NAD801   0.0000
    33 C2D         18.7330    74.9970    18.3570 C.3          1 NAD801   0.0000
    34 O2D         18.9140    75.1490    16.9460 O.3          1 NAD801   0.0000
    35 C1D         17.3950    74.3890    18.7460 C.3          1 NAD801   0.0000
    36 N1N         16.2980    75.3600    18.9380 N.ar         1 NAD801   1.0000
    37 C2N         16.2890    76.3090    20.0150 C.ar         1 NAD801   0.0000
    38 C3N         15.2000    77.1900    20.1340 C.ar         1 NAD801   0.0000
    39 C7N         15.1180    78.2300    21.2750 C.2          1 NAD801   0.0000
    40 O7N         14.0620    78.8550    21.4350 O.2          1 NAD801   0.0000
    41 N7N         16.1670    78.4190    22.0660 N.am         1 NAD801   0.0000
    42 C4N         14.1340    77.1380    19.2000 C.ar         1 NAD801   0.0000
    43 C5N         14.1620    76.2000    18.1470 C.ar         1 NAD801   0.0000
    44 C6N         15.2350    75.3050    18.0050 C.ar         1 NAD801   0.0000
    45 H5B1        24.4509    76.0623    21.8703 H            1 NAD801   0.0000
    46 H5B2        23.2472    74.9629    21.9663 H            1 NAD801   0.0000
    47 H4B         24.3514    73.9567    23.8759 H            1 NAD801   0.0000
    48 H3B         25.7597    76.2414    24.0235 H            1 NAD801   0.0000
    49 H5          26.8342    74.0125    25.2928 H            1 NAD801   0.0000
    50 H2B         27.1723    75.7911    22.3316 H            1 NAD801   0.0000
    51 H7          28.5823    74.4627    24.3644 H            1 NAD801   0.0000
    52 H1B         27.2688    73.0138    23.0298 H            1 NAD801   0.0000
    53 H8A         26.9167    75.1719    19.9384 H            1 NAD801   0.0000
    54 H6A1        30.6471    71.0534    17.2669 H            1 NAD801   0.0000
    55 H6A2        29.7680    72.5263    17.0265 H            1 NAD801   0.0000
    56 H2A         29.8520    69.7893    21.5922 H            1 NAD801   0.0000
    57 H5D1        18.9210    73.5875    22.2085 H            1 NAD801   0.0000
    58 H5D2        20.4454    73.4961    21.6301 H            1 NAD801   0.0000
    59 H4D         19.0927    72.3538    20.0936 H            1 NAD801   0.0000
    60 H3D         20.5856    74.3728    19.1965 H            1 NAD801   0.0000
    61 H17         19.2551    72.1896    18.0268 H            1 NAD801   0.0000
    62 H2D         18.8634    75.8737    18.8200 H            1 NAD801   0.0000
    63 H19         18.6783    76.0833    16.6784 H            1 NAD801   0.0000
    64 H1D         17.1231    73.7417    18.0339 H            1 NAD801   0.0000
    65 H2N         17.0444    76.3428    20.6694 H            1 NAD801   0.0000
    66 H7N1        16.1208    79.0901    22.8059 H            1 NAD801   0.0000
    67 H7N2        17.0035    77.8903    21.9220 H            1 NAD801   0.0000
    68 H4N         13.3617    77.7671    19.2881 H            1 NAD801   0.0000
    69 H5N         13.4069    76.1718    17.4920 H            1 NAD801   0.0000
    70 H6N         15.2478    74.6405    17.2578 H            1 NAD801   0.0000
@<TRIPOS>BOND
     1    1    2      ar
     2    1    3      ar
     3    1    4       1
     4    1   23       1
     5    4    5       1
     6    5    6       1
     7    6    7       1
     8    6    8       1
     9    7   12       1
    10    8    9       1
    11    8   10       1
    12   10   11       1
    13   10   12       1
    14   12   13       1
    15   13   14       1
    16   13   22       1
    17   14   15       2
    18   15   16       1
    19   16   17      ar
    20   16   22      ar
    21   17   18       1
    22   17   19      ar
    23   19   20      ar
    24   20   21      ar
    25   21   22      ar
    26   23   24       1
    27   24   25      ar
    28   24   26      ar
    29   24   27       1
    30   27   28       1
    31   28   29       1
    32   29   30       1
    33   29   31       1
    34   30   35       1
    35   31   32       1
    36   31   33       1
    37   33   34       1
    38   33   35       1
    39   35   36       1
    40   36   37      ar
    41   36   44      ar
    42   37   38      ar
    43   38   39       1
    44   38   42      ar
    45   39   40       2
    46   39   41      am
    47   42   43      ar
    48   43   44      ar
    49   44   70       1
    50    5   45       1
    51    5   46       1
    52    6   47       1
    53    8   48       1
    54    9   49       1
    55   10   50       1
    56   11   51       1
    57   12   52       1
    58   14   53       1
    59   18   54       1
    60   18   55       1
    61   20   56       1
    62   43   69       1
    63   28   57       1
    64   28   58       1
    65   29   59       1
    66   31   60       1
    67   32   61       1
    68   33   62       1
    69   34   63       1
    70   35   64       1
    71   37   65       1
    72   41   66       1
    73   41   67       1
    74   42   68       1
@<TRIPOS>SUBSTRUCTURE
     1 NAD801      1 GROUP             4 A     NAD     0 **** NAD A 801
