@<TRIPOS>MOLECULE
2pyw_ADP_2_ligand
   39    41     1     0     0
SMALL
NO_CHARGES


@<TRIPOS>ATOM
     1 PB          22.9670    38.1840    24.8540 P.3          1 ADP999   0.0000
     2 O1B         23.2010    39.2360    25.9060 O.co2        1 ADP999   0.0000
     3 O2B         24.2810    37.6900    24.2920 O.co2        1 ADP999  -1.0000
     4 O3B         22.0030    37.0620    25.2110 O.co2        1 ADP999  -1.0000
     5 PA          21.4240    38.4850    22.3690 P.3          1 ADP999   0.0000
     6 O1A         22.2850    38.5230    21.1530 O.co2        1 ADP999   0.0000
     7 O2A         20.6350    37.2440    22.7000 O.co2        1 ADP999  -1.0000
     8 O3A         22.2960    39.0280    23.6410 O.3          1 ADP999   0.0000
     9 O5'         20.3750    39.6800    22.1550 O.3          1 ADP999   0.0000
    10 C5'         19.5280    40.0780    23.2340 C.3          1 ADP999   0.0000
    11 C4'         18.2380    40.6260    22.6360 C.3          1 ADP999   0.0000
    12 O4'         18.5230    41.6310    21.6510 O.3          1 ADP999   0.0000
    13 C3'         17.4340    39.5570    21.9180 C.3          1 ADP999   0.0000
    14 O3'         16.5450    38.8750    22.8100 O.3          1 ADP999   0.0000
    15 C2'         16.6540    40.3740    20.9110 C.3          1 ADP999   0.0000
    16 O2'         15.5290    40.9650    21.5850 O.3          1 ADP999   0.0000
    17 C1'         17.6010    41.5070    20.5570 C.3          1 ADP999   0.0000
    18 N9          18.3950    41.2940    19.3140 N.pl3        1 ADP999   0.0000
    19 C8          19.6580    40.8280    19.2530 C.2          1 ADP999   0.0000
    20 N7          20.0790    40.7970    17.9570 N.2          1 ADP999   0.0000
    21 C5          19.0650    41.2620    17.2050 C.ar         1 ADP999   0.0000
    22 C6          18.9010    41.4620    15.8330 C.ar         1 ADP999   0.0000
    23 N6          19.9140    41.1880    14.9770 N.pl3        1 ADP999   0.0000
    24 N1          17.7170    41.9540    15.3820 N.ar         1 ADP999   0.0000
    25 C2          16.7110    42.2440    16.2140 C.ar         1 ADP999   0.0000
    26 N3          16.8420    42.0650    17.5430 N.ar         1 ADP999   0.0000
    27 C4          18.0030    41.5670    18.0630 C.ar         1 ADP999   0.0000
    28 H5'1        19.9790    40.7863    23.7770 H            1 ADP999   0.0000
    29 H5'2        19.3255    39.2903    23.8158 H            1 ADP999   0.0000
    30 H4'         17.6804    41.0256    23.3636 H            1 ADP999   0.0000
    31 H3'         18.0391    38.9086    21.4561 H            1 ADP999   0.0000
    32 H5          16.6427    39.2522    23.7310 H            1 ADP999   0.0000
    33 H2'         16.3827    39.8382    20.1115 H            1 ADP999   0.0000
    34 H7          15.8551    41.5529    22.3253 H            1 ADP999   0.0000
    35 H1'         17.0789    42.3555    20.4708 H            1 ADP999   0.0000
    36 H9          20.2051    40.5467    20.0414 H            1 ADP999   0.0000
    37 H10         19.7919    41.3328    13.9951 H            1 ADP999   0.0000
    38 H11         20.7841    40.8408    15.3268 H            1 ADP999   0.0000
    39 H12         15.8514    42.5979    15.8455 H            1 ADP999   0.0000
@<TRIPOS>BOND
     1    1    2      ar
     2    1    3      ar
     3    1    4      ar
     4    1    8       1
     5    5    6      ar
     6    5    7      ar
     7    5    8       1
     8    5    9       1
     9    9   10       1
    10   10   11       1
    11   11   12       1
    12   11   13       1
    13   12   17       1
    14   13   14       1
    15   13   15       1
    16   15   16       1
    17   15   17       1
    18   17   18       1
    19   18   19       1
    20   18   27       1
    21   19   20       2
    22   20   21       1
    23   21   22      ar
    24   21   27      ar
    25   22   23       1
    26   22   24      ar
    27   24   25      ar
    28   25   26      ar
    29   26   27      ar
    30   25   39       1
    31   23   38       1
    32   23   37       1
    33   10   28       1
    34   10   29       1
    35   11   30       1
    36   13   31       1
    37   14   32       1
    38   15   33       1
    39   16   34       1
    40   17   35       1
    41   19   36       1
@<TRIPOS>SUBSTRUCTURE
     1 ADP999      1 GROUP             4 B     ADP     0 **** ADP B 999
