@<TRIPOS>MOLECULE
3ddc_GNP_1_ligand
   45    47     1     0     0
SMALL
NO_CHARGES


@<TRIPOS>ATOM
     1 PG          15.9400    38.0120    -2.7460 P.3          1 GNP500   0.0000
     2 O1G         14.6320    37.5770    -3.3550 O.co2        1 GNP500   0.0000
     3 O2G         16.0970    37.5790    -1.3210 O.co2        1 GNP500  -1.0000
     4 O3G         16.1370    39.4640    -2.9020 O.co2        1 GNP500  -1.0000
     5 N3B         17.1640    37.3370    -3.5970 N.3          1 GNP500   0.0000
     6 PB          18.7390    37.4430    -3.2800 P.3          1 GNP500   0.0000
     7 O1B         19.3690    38.7300    -3.7100 O.co2        1 GNP500   0.0000
     8 O2B         19.0180    37.1050    -1.8480 O.co2        1 GNP500  -1.0000
     9 O3A         19.4210    36.3290    -4.1590 O.3          1 GNP500   0.0000
    10 PA          19.8500    34.8310    -3.7970 P.3          1 GNP500   0.0000
    11 O1A         21.0370    34.9120    -2.9370 O.co2        1 GNP500   0.0000
    12 O2A         18.6720    34.0740    -3.3640 O.co2        1 GNP500  -1.0000
    13 O5'         20.3800    34.2590    -5.1860 O.3          1 GNP500   0.0000
    14 C5'         19.5120    34.0670    -6.3040 C.3          1 GNP500   0.0000
    15 C4'         20.1190    33.0170    -7.2200 C.3          1 GNP500   0.0000
    16 O4'         21.3930    33.5160    -7.7210 O.3          1 GNP500   0.0000
    17 C3'         20.3980    31.6710    -6.5430 C.3          1 GNP500   0.0000
    18 O3'         19.9000    30.6430    -7.4050 O.3          1 GNP500   0.0000
    19 C2'         21.9040    31.7220    -6.2530 C.3          1 GNP500   0.0000
    20 O2'         22.5700    30.4750    -6.1760 O.3          1 GNP500   0.0000
    21 C1'         22.4200    32.5680    -7.4150 C.3          1 GNP500   0.0000
    22 N9          23.6140    33.3070    -7.0710 N.pl3        1 GNP500   0.0000
    23 C8          23.8260    34.1790    -6.0140 C.2          1 GNP500   0.0000
    24 N7          25.0300    34.6730    -5.9780 N.2          1 GNP500   0.0000
    25 C5          25.6670    34.0870    -7.0570 C.2          1 GNP500   0.0000
    26 C6          26.9940    34.2580    -7.5590 C.2          1 GNP500   0.0000
    27 O6          27.9040    34.9380    -7.0880 O.2          1 GNP500   0.0000
    28 N1          27.2240    33.4750    -8.6870 N.pl3        1 GNP500   0.0000
    29 C2          26.2910    32.6510    -9.2740 C.2          1 GNP500   0.0000
    30 N2          26.6730    31.9600   -10.3820 N.pl3        1 GNP500   0.0000
    31 N3          25.0340    32.5020    -8.8420 N.2          1 GNP500   0.0000
    32 C4          24.8100    33.2430    -7.7290 C.2          1 GNP500   0.0000
    33 H3B         16.9669    36.3566    -3.5980 H            1 GNP500   0.0000
    34 H5'1        19.4092    34.9283    -6.8016 H            1 GNP500   0.0000
    35 H5'2        18.6163    33.7574    -5.9849 H            1 GNP500   0.0000
    36 H4'         19.5033    32.8682    -7.9938 H            1 GNP500   0.0000
    37 H3'         19.9018    31.6353    -5.6755 H            1 GNP500   0.0000
    38 H6          20.0678    29.7491    -6.9893 H            1 GNP500   0.0000
    39 H2'         22.0521    32.2209    -5.3991 H            1 GNP500   0.0000
    40 H8          22.5499    30.1441    -5.2326 H            1 GNP500   0.0000
    41 H1'         22.5954    31.9864    -8.2093 H            1 GNP500   0.0000
    42 H10         23.1207    34.4069    -5.3427 H            1 GNP500   0.0000
    43 H11         28.1335    33.5142    -9.1009 H            1 GNP500   0.0000
    44 H12         26.0254    31.3503   -10.8390 H            1 GNP500   0.0000
    45 H13         27.6014    32.0618   -10.7394 H            1 GNP500   0.0000
@<TRIPOS>BOND
     1    1    2      ar
     2    1    3      ar
     3    1    4      ar
     4    1    5       1
     5    5    6       1
     6    6    7      ar
     7    6    8      ar
     8    6    9       1
     9    9   10       1
    10   10   11      ar
    11   10   12      ar
    12   10   13       1
    13   13   14       1
    14   14   15       1
    15   15   16       1
    16   15   17       1
    17   16   21       1
    18   17   18       1
    19   17   19       1
    20   19   20       1
    21   19   21       1
    22   21   22       1
    23   22   23       1
    24   22   32       1
    25   23   24       2
    26   24   25       1
    27   25   26       1
    28   25   32       2
    29   26   27       2
    30   26   28       1
    31   28   29       1
    32   29   30       1
    33   29   31       2
    34   31   32       1
    35   30   45       1
    36   30   44       1
    37    5   33       1
    38   28   43       1
    39   23   42       1
    40   14   34       1
    41   14   35       1
    42   15   36       1
    43   17   37       1
    44   18   38       1
    45   19   39       1
    46   20   40       1
    47   21   41       1
@<TRIPOS>SUBSTRUCTURE
     1 GNP500      1 GROUP             4 A     GNP     0 **** GNP A 500
