@<TRIPOS>MOLECULE
3zbr_NAP_1_ligand
   73    77     1     0     0
SMALL
NO_CHARGES


@<TRIPOS>ATOM
     1 PA          55.4130    -5.5040    57.2700 P.3          1 NAP1379   0.0000
     2 O1A         55.5220    -5.9470    58.7070 O.co2        1 NAP1379   0.0000
     3 O2A         54.4890    -4.3650    56.9110 O.co2        1 NAP1379  -1.0000
     4 O5B         55.0920    -6.7490    56.3050 O.3          1 NAP1379   0.0000
     5 C5B         56.0090    -7.8400    56.2350 C.3          1 NAP1379   0.0000
     6 C4B         56.0720    -8.3430    54.8030 C.3          1 NAP1379   0.0000
     7 O4B         54.7580    -8.2700    54.2550 O.3          1 NAP1379   0.0000
     8 C3B         56.9660    -7.4960    53.9130 C.3          1 NAP1379   0.0000
     9 O3B         58.2610    -8.0880    53.7620 O.3          1 NAP1379   0.0000
    10 C2B         56.2220    -7.4300    52.5980 C.3          1 NAP1379   0.0000
    11 O2B         56.6310    -8.4940    51.7430 O.3          1 NAP1379   0.0000
    12 C1B         54.7680    -7.6610    52.9640 C.3          1 NAP1379   0.0000
    13 N9A         53.9710    -6.4120    53.0610 N.pl3        1 NAP1379   0.0000
    14 C8A         54.2200    -5.3660    53.8740 C.2          1 NAP1379   0.0000
    15 N7A         53.2790    -4.3980    53.7150 N.2          1 NAP1379   0.0000
    16 C5A         52.4030    -4.8260    52.7880 C.ar         1 NAP1379   0.0000
    17 C6A         51.1720    -4.3030    52.1440 C.ar         1 NAP1379   0.0000
    18 N6A         50.6650    -3.0870    52.4660 N.pl3        1 NAP1379   0.0000
    19 N1A         50.5690    -5.0860    51.2200 N.ar         1 NAP1379   0.0000
    20 C2A         51.0450    -6.2980    50.8770 C.ar         1 NAP1379   0.0000
    21 N3A         52.1550    -6.8260    51.4240 N.ar         1 NAP1379   0.0000
    22 C4A         52.8650    -6.1550    52.3620 C.ar         1 NAP1379   0.0000
    23 O3          56.8820    -5.1790    56.7150 O.3          1 NAP1379   0.0000
    24 PN          58.1390    -5.2440    57.7060 P.3          1 NAP1379   0.0000
    25 O1N         57.9340    -4.2280    58.8030 O.co2        1 NAP1379   0.0000
    26 O2N         59.3900    -5.2230    56.8660 O.co2        1 NAP1379  -1.0000
    27 O5D         57.9930    -6.7240    58.3210 O.3          1 NAP1379   0.0000
    28 C5D         58.8100    -7.1180    59.4160 C.3          1 NAP1379   0.0000
    29 C4D         60.1100    -7.6810    58.8570 C.3          1 NAP1379   0.0000
    30 O4D         61.1260    -7.6990    59.8590 O.3          1 NAP1379   0.0000
    31 C3D         59.9720    -9.1060    58.3410 C.3          1 NAP1379   0.0000
    32 O3D         59.8090    -9.1220    56.9170 O.3          1 NAP1379   0.0000
    33 C2D         61.2520    -9.8030    58.7720 C.3          1 NAP1379   0.0000
    34 O2D         62.0140   -10.2360    57.6400 O.3          1 NAP1379   0.0000
    35 C1D         62.0260    -8.7740    59.5890 C.3          1 NAP1379   0.0000
    36 N1N         62.5470    -9.3520    60.8340 N.ar         1 NAP1379   1.0000
    37 C2N         62.0810    -8.9380    62.0240 C.ar         1 NAP1379   0.0000
    38 C3N         62.5730    -9.4820    63.2080 C.ar         1 NAP1379   0.0000
    39 C7N         62.0430    -9.0120    64.5350 C.2          1 NAP1379   0.0000
    40 O7N         61.4930    -7.9250    64.6050 O.2          1 NAP1379   0.0000
    41 N7N         62.1850    -9.7870    65.6110 N.am         1 NAP1379   0.0000
    42 C4N         63.5520   -10.4650    63.1480 C.ar         1 NAP1379   0.0000
    43 C5N         64.0160   -10.8740    61.9060 C.ar         1 NAP1379   0.0000
    44 C6N         63.4910   -10.3000    60.7560 C.ar         1 NAP1379   0.0000
    45 P2B         57.1590    -8.2580    50.2420 P.3          1 NAP1379   0.0000
    46 O1X         57.9680    -6.9870    50.3280 O.co2        1 NAP1379   0.0000
    47 O2X         57.9540    -9.5040    49.9280 O.co2        1 NAP1379  -1.0000
    48 O3X         55.8880    -8.1200    49.4340 O.co2        1 NAP1379  -1.0000
    49 H5B1        55.6995    -8.5770    56.8358 H            1 NAP1379   0.0000
    50 H5B2        56.9165    -7.5341    56.5230 H            1 NAP1379   0.0000
    51 H4B         56.3886    -9.2915    54.7930 H            1 NAP1379   0.0000
    52 H3B         57.0558    -6.5776    54.2983 H            1 NAP1379   0.0000
    53 H5          58.6378    -7.8422    52.8689 H            1 NAP1379   0.0000
    54 H2B         56.3471    -6.5419    52.1557 H            1 NAP1379   0.0000
    55 H1B         54.3475    -8.2773    52.2982 H            1 NAP1379   0.0000
    56 H8A         54.9916    -5.3098    54.5076 H            1 NAP1379   0.0000
    57 H6A1        49.8342    -2.7571    52.0178 H            1 NAP1379   0.0000
    58 H6A2        51.1220    -2.5203    53.1516 H            1 NAP1379   0.0000
    59 H2A         50.5527    -6.8280    50.1866 H            1 NAP1379   0.0000
    60 H5D1        58.3410    -7.8182    59.9543 H            1 NAP1379   0.0000
    61 H5D2        59.0047    -6.3268    59.9957 H            1 NAP1379   0.0000
    62 H4D         60.4138    -7.0967    58.1045 H            1 NAP1379   0.0000
    63 H3D         59.1861    -9.5466    58.7749 H            1 NAP1379   0.0000
    64 H16         58.9358    -9.5513    56.6862 H            1 NAP1379   0.0000
    65 H2D         61.0287   -10.5898    59.3475 H            1 NAP1379   0.0000
    66 H18         61.5347    -9.9838    56.7993 H            1 NAP1379   0.0000
    67 H1D         62.7903    -8.4310    59.0430 H            1 NAP1379   0.0000
    68 H2N         61.3737    -8.2320    62.0601 H            1 NAP1379   0.0000
    69 H7N1        61.8354    -9.4817    66.4968 H            1 NAP1379   0.0000
    70 H7N2        62.6411   -10.6734    65.5321 H            1 NAP1379   0.0000
    71 H4N         63.9165   -10.8713    63.9859 H            1 NAP1379   0.0000
    72 H5N         64.7237   -11.5774    61.8396 H            1 NAP1379   0.0000
    73 H6N         63.8208   -10.5971    59.8599 H            1 NAP1379   0.0000
@<TRIPOS>BOND
     1    1    2      ar
     2    1    3      ar
     3    1    4       1
     4    1   23       1
     5    4    5       1
     6    5    6       1
     7    6    7       1
     8    6    8       1
     9    7   12       1
    10    8    9       1
    11    8   10       1
    12   10   11       1
    13   10   12       1
    14   11   45       1
    15   12   13       1
    16   13   14       1
    17   13   22       1
    18   14   15       2
    19   15   16       1
    20   16   17      ar
    21   16   22      ar
    22   17   18       1
    23   17   19      ar
    24   19   20      ar
    25   20   21      ar
    26   21   22      ar
    27   23   24       1
    28   24   25      ar
    29   24   26      ar
    30   24   27       1
    31   27   28       1
    32   28   29       1
    33   29   30       1
    34   29   31       1
    35   30   35       1
    36   31   32       1
    37   31   33       1
    38   33   34       1
    39   33   35       1
    40   35   36       1
    41   36   37      ar
    42   36   44      ar
    43   37   38      ar
    44   38   39       1
    45   38   42      ar
    46   39   40       2
    47   39   41      am
    48   42   43      ar
    49   43   44      ar
    50   45   46      ar
    51   45   47      ar
    52   45   48      ar
    53   43   72       1
    54    5   49       1
    55    5   50       1
    56    6   51       1
    57    8   52       1
    58    9   53       1
    59   10   54       1
    60   12   55       1
    61   14   56       1
    62   18   57       1
    63   18   58       1
    64   20   59       1
    65   44   73       1
    66   28   60       1
    67   28   61       1
    68   29   62       1
    69   31   63       1
    70   32   64       1
    71   33   65       1
    72   34   66       1
    73   35   67       1
    74   37   68       1
    75   41   69       1
    76   41   70       1
    77   42   71       1
@<TRIPOS>SUBSTRUCTURE
     1 NAP1379     1 GROUP             4 A     NAP     0 **** NAP A1379
