@<TRIPOS>MOLECULE
4ejm_NAP_1_ligand
   73    77     1     0     0
SMALL
NO_CHARGES


@<TRIPOS>ATOM
     1 PA          42.1250    22.1100    18.9590 P.3          1 NAP402   0.0000
     2 O1A         41.4990    21.7940    20.2980 O.co2        1 NAP402   0.0000
     3 O2A         41.9880    23.4000    18.2350 O.co2        1 NAP402  -1.0000
     4 O5B         43.6620    21.7020    19.0000 O.3          1 NAP402   0.0000
     5 C5B         44.6180    22.4880    18.3280 C.3          1 NAP402   0.0000
     6 C4B         45.5340    23.0170    19.3940 C.3          1 NAP402   0.0000
     7 O4B         46.7490    23.4030    18.7720 O.3          1 NAP402   0.0000
     8 C3B         45.0530    24.2270    20.1820 C.3          1 NAP402   0.0000
     9 O3B         44.2790    23.8260    21.3060 O.3          1 NAP402   0.0000
    10 C2B         46.3550    24.8130    20.6700 C.3          1 NAP402   0.0000
    11 O2B         46.6360    24.3980    22.0200 O.3          1 NAP402   0.0000
    12 C1B         47.4180    24.2250    19.7270 C.3          1 NAP402   0.0000
    13 N9A         48.1960    25.2420    19.0130 N.pl3        1 NAP402   0.0000
    14 C8A         47.7300    26.3890    18.4600 C.2          1 NAP402   0.0000
    15 N7A         48.7730    27.0570    17.8960 N.2          1 NAP402   0.0000
    16 C5A         49.8980    26.3340    18.0820 C.ar         1 NAP402   0.0000
    17 C6A         51.3350    26.4420    17.7330 C.ar         1 NAP402   0.0000
    18 N6A         51.7910    27.5160    17.0510 N.pl3        1 NAP402   0.0000
    19 N1A         52.1830    25.4540    18.1110 N.ar         1 NAP402   0.0000
    20 C2A         51.7530    24.3780    18.7800 C.ar         1 NAP402   0.0000
    21 N3A         50.4560    24.2090    19.1160 N.ar         1 NAP402   0.0000
    22 C4A         49.5060    25.1280    18.8080 C.ar         1 NAP402   0.0000
    23 O3          41.5030    21.1160    17.8830 O.3          1 NAP402   0.0000
    24 PN          41.4640    19.5260    17.7410 P.3          1 NAP402   0.0000
    25 O1N         40.0530    19.0580    17.8670 O.co2        1 NAP402   0.0000
    26 O2N         42.6080    18.8580    18.4600 O.co2        1 NAP402  -1.0000
    27 O5D         41.6880    19.5310    16.1340 O.3          1 NAP402   0.0000
    28 C5D         42.9910    19.8790    15.6420 C.3          1 NAP402   0.0000
    29 C4D         42.9560    20.1290    14.1390 C.3          1 NAP402   0.0000
    30 O4D         42.6290    18.9270    13.4350 O.3          1 NAP402   0.0000
    31 C3D         41.8870    21.1320    13.7400 C.3          1 NAP402   0.0000
    32 O3D         42.4350    21.8950    12.6830 O.3          1 NAP402   0.0000
    33 C2D         40.7370    20.2740    13.2800 C.3          1 NAP402   0.0000
    34 O2D         39.9720    20.9490    12.3150 O.3          1 NAP402   0.0000
    35 C1D         41.4540    19.1020    12.6440 C.3          1 NAP402   0.0000
    36 N1N         40.7650    17.8060    12.5000 N.ar         1 NAP402   1.0000
    37 C2N         41.0860    17.0940    11.3900 C.ar         1 NAP402   0.0000
    38 C3N         40.5680    15.8330    11.1220 C.ar         1 NAP402   0.0000
    39 C7N         40.9550    15.0740     9.8520 C.2          1 NAP402   0.0000
    40 O7N         40.2360    14.1620     9.4120 O.2          1 NAP402   0.0000
    41 N7N         42.0960    15.3810     9.2120 N.am         1 NAP402   0.0000
    42 C4N         39.6790    15.3050    12.0640 C.ar         1 NAP402   0.0000
    43 C5N         39.3670    16.0310    13.2040 C.ar         1 NAP402   0.0000
    44 C6N         39.9230    17.2900    13.4140 C.ar         1 NAP402   0.0000
    45 P2B         47.5930    25.3970    22.8980 P.3          1 NAP402   0.0000
    46 O1X         48.7140    25.7820    21.9350 O.co2        1 NAP402   0.0000
    47 O2X         48.0640    24.5720    24.0530 O.co2        1 NAP402  -1.0000
    48 O3X         46.5670    26.4460    23.2130 O.co2        1 NAP402  -1.0000
    49 H5B1        44.1722    23.2423    17.8460 H            1 NAP402   0.0000
    50 H5B2        45.1297    21.9307    17.6741 H            1 NAP402   0.0000
    51 H4B         45.7296    22.2776    20.0382 H            1 NAP402   0.0000
    52 H3B         44.5539    24.8703    19.6014 H            1 NAP402   0.0000
    53 H5          43.4824    23.3080    20.9945 H            1 NAP402   0.0000
    54 H2B         46.3389    25.8107    20.6043 H            1 NAP402   0.0000
    55 H1B         48.0436    23.6559    20.2607 H            1 NAP402   0.0000
    56 H8A         46.7776    26.6937    18.4656 H            1 NAP402   0.0000
    57 H6A1        52.7609    27.5851    16.8175 H            1 NAP402   0.0000
    58 H6A2        51.1585    28.2416    16.7799 H            1 NAP402   0.0000
    59 H2A         52.4148    23.6748    19.0401 H            1 NAP402   0.0000
    60 H5D1        43.6246    19.1297    15.8346 H            1 NAP402   0.0000
    61 H5D2        43.3049    20.7081    16.1046 H            1 NAP402   0.0000
    62 H4D         43.8503    20.4585    13.8362 H            1 NAP402   0.0000
    63 H3D         41.6243    21.7120    14.5111 H            1 NAP402   0.0000
    64 H16         42.0462    22.8162    12.7004 H            1 NAP402   0.0000
    65 H2D         40.1721    19.9796    14.0508 H            1 NAP402   0.0000
    66 H18         39.2147    20.3653    12.0220 H            1 NAP402   0.0000
    67 H1D         41.7467    19.3888    11.7318 H            1 NAP402   0.0000
    68 H2N         41.7253    17.4958    10.7344 H            1 NAP402   0.0000
    69 H7N1        42.3519    14.8866     8.3813 H            1 NAP402   0.0000
    70 H7N2        42.6892    16.1039     9.5664 H            1 NAP402   0.0000
    71 H4N         39.2688    14.4051    11.9158 H            1 NAP402   0.0000
    72 H5N         38.7380    15.6472    13.8801 H            1 NAP402   0.0000
    73 H6N         39.6979    17.8078    14.2393 H            1 NAP402   0.0000
@<TRIPOS>BOND
     1    1    2      ar
     2    1    3      ar
     3    1    4       1
     4    1   23       1
     5    4    5       1
     6    5    6       1
     7    6    7       1
     8    6    8       1
     9    7   12       1
    10    8    9       1
    11    8   10       1
    12   10   11       1
    13   10   12       1
    14   11   45       1
    15   12   13       1
    16   13   14       1
    17   13   22       1
    18   14   15       2
    19   15   16       1
    20   16   17      ar
    21   16   22      ar
    22   17   18       1
    23   17   19      ar
    24   19   20      ar
    25   20   21      ar
    26   21   22      ar
    27   23   24       1
    28   24   25      ar
    29   24   26      ar
    30   24   27       1
    31   27   28       1
    32   28   29       1
    33   29   30       1
    34   29   31       1
    35   30   35       1
    36   31   32       1
    37   31   33       1
    38   33   34       1
    39   33   35       1
    40   35   36       1
    41   36   37      ar
    42   36   44      ar
    43   37   38      ar
    44   38   39       1
    45   38   42      ar
    46   39   40       2
    47   39   41      am
    48   42   43      ar
    49   43   44      ar
    50   45   46      ar
    51   45   47      ar
    52   45   48      ar
    53   43   72       1
    54    5   49       1
    55    5   50       1
    56    6   51       1
    57    8   52       1
    58    9   53       1
    59   10   54       1
    60   12   55       1
    61   14   56       1
    62   18   57       1
    63   18   58       1
    64   20   59       1
    65   44   73       1
    66   28   60       1
    67   28   61       1
    68   29   62       1
    69   31   63       1
    70   32   64       1
    71   33   65       1
    72   34   66       1
    73   35   67       1
    74   37   68       1
    75   41   69       1
    76   41   70       1
    77   42   71       1
@<TRIPOS>SUBSTRUCTURE
     1 NAP402      1 GROUP             4 A     NAP     0 **** NAP A 402
