@<TRIPOS>MOLECULE
3crl_ANP_1_ligand
   44    46     1     0     0
SMALL
NO_CHARGES


@<TRIPOS>ATOM
     1 PG          54.1700   115.6240    55.0250 P.3          1 ANP1000   0.0000
     2 O1G         55.3030   115.5730    56.0190 O.co2        1 ANP1000   0.0000
     3 O2G         52.7970   115.3930    55.6050 O.co2        1 ANP1000  -1.0000
     4 O3G         54.4670   114.7700    53.8180 O.co2        1 ANP1000  -1.0000
     5 PB          55.2880   117.7870    53.2650 P.3          1 ANP1000   0.0000
     6 O1B         54.8450   117.4120    51.8700 O.co2        1 ANP1000   0.0000
     7 O2B         55.6230   119.2340    53.5360 O.co2        1 ANP1000  -1.0000
     8 N3B         54.0820   117.2580    54.4070 N.3          1 ANP1000   0.0000
     9 PA          57.5450   116.2020    52.5630 P.3          1 ANP1000   0.0000
    10 O1A         58.7520   115.6940    53.3300 O.co2        1 ANP1000   0.0000
    11 O2A         56.7100   115.2470    51.7520 O.co2        1 ANP1000  -1.0000
    12 O3A         56.6060   116.9470    53.6420 O.3          1 ANP1000   0.0000
    13 O5'         58.0030   117.4200    51.6260 O.3          1 ANP1000   0.0000
    14 C5'         58.8470   118.4410    52.1580 C.3          1 ANP1000   0.0000
    15 C4'         58.8060   119.6360    51.2190 C.3          1 ANP1000   0.0000
    16 O4'         59.4740   119.3050    50.0060 O.3          1 ANP1000   0.0000
    17 C3'         57.3970   119.9830    50.7800 C.3          1 ANP1000   0.0000
    18 O3'         56.7580   120.8460    51.7250 O.3          1 ANP1000   0.0000
    19 C2'         57.5850   120.6030    49.4080 C.3          1 ANP1000   0.0000
    20 O2'         57.8490   122.0100    49.4690 O.3          1 ANP1000   0.0000
    21 C1'         58.8370   119.9340    48.8850 C.3          1 ANP1000   0.0000
    22 N9          58.4470   118.9320    47.8630 N.pl3        1 ANP1000   0.0000
    23 C8          58.3810   117.5970    48.0350 C.2          1 ANP1000   0.0000
    24 N7          57.9860   116.9800    46.8930 N.2          1 ANP1000   0.0000
    25 C5          57.7900   117.9310    45.9670 C.ar         1 ANP1000   0.0000
    26 C6          57.3660   117.9690    44.5550 C.ar         1 ANP1000   0.0000
    27 N6          57.0590   116.8270    43.8920 N.pl3        1 ANP1000   0.0000
    28 N1          57.2940   119.1830    43.9540 N.ar         1 ANP1000   0.0000
    29 C2          57.5860   120.3310    44.5950 C.ar         1 ANP1000   0.0000
    30 N3          57.9730   120.3680    45.8830 N.ar         1 ANP1000   0.0000
    31 C4          58.0950   119.2210    46.6060 C.ar         1 ANP1000   0.0000
    32 H3B         54.1316   117.8733    55.1937 H            1 ANP1000   0.0000
    33 H5'1        59.7844   118.1004    52.2303 H            1 ANP1000   0.0000
    34 H5'2        58.5199   118.7117    53.0634 H            1 ANP1000   0.0000
    35 H4'         59.2399   120.4283    51.6480 H            1 ANP1000   0.0000
    36 H3'         56.8640   119.1416    50.6903 H            1 ANP1000   0.0000
    37 H6          56.2795   120.2953    52.4089 H            1 ANP1000   0.0000
    38 H2'         56.8017   120.4103    48.8169 H            1 ANP1000   0.0000
    39 H8          58.6846   122.1699    49.9946 H            1 ANP1000   0.0000
    40 H1'         59.4473   120.6158    48.4817 H            1 ANP1000   0.0000
    41 H10         58.5946   117.1244    48.8900 H            1 ANP1000   0.0000
    42 H11         56.7728   116.8662    42.9346 H            1 ANP1000   0.0000
    43 H12         57.1188   115.9455    44.3603 H            1 ANP1000   0.0000
    44 H13         57.5120   121.1923    44.0923 H            1 ANP1000   0.0000
@<TRIPOS>BOND
     1    1    2      ar
     2    1    3      ar
     3    1    4      ar
     4    1    8       1
     5    5    6      ar
     6    5    7      ar
     7    5    8       1
     8    5   12       1
     9    9   10      ar
    10    9   11      ar
    11    9   12       1
    12    9   13       1
    13   13   14       1
    14   14   15       1
    15   15   16       1
    16   15   17       1
    17   16   21       1
    18   17   18       1
    19   17   19       1
    20   19   20       1
    21   19   21       1
    22   21   22       1
    23   22   23       1
    24   22   31       1
    25   23   24       2
    26   24   25       1
    27   25   26      ar
    28   25   31      ar
    29   26   27       1
    30   26   28      ar
    31   28   29      ar
    32   29   30      ar
    33   30   31      ar
    34   29   44       1
    35   27   43       1
    36   27   42       1
    37    8   32       1
    38   23   41       1
    39   14   33       1
    40   14   34       1
    41   15   35       1
    42   17   36       1
    43   18   37       1
    44   19   38       1
    45   20   39       1
    46   21   40       1
@<TRIPOS>SUBSTRUCTURE
     1 ANP1000     1 GROUP             4 A     ANP     0 **** ANP A1000
