@<TRIPOS>MOLECULE
5hxw_FAD_3_ligand
   84    89     1     0     0
SMALL
NO_CHARGES


@<TRIPOS>ATOM
     1 PA         -22.1220    23.4670   -30.7210 P.3          1 FAD501   0.0000
     2 O1A        -22.8610    24.7430   -30.3800 O.co2        1 FAD501   0.0000
     3 O2A        -22.8320    22.1500   -30.5650 O.co2        1 FAD501  -1.0000
     4 O5B        -20.7680    23.3990   -29.8560 O.3          1 FAD501   0.0000
     5 C5B        -19.9660    24.5550   -29.6540 C.3          1 FAD501   0.0000
     6 C4B        -19.5000    24.5900   -28.2080 C.3          1 FAD501   0.0000
     7 O4B        -18.3320    25.4080   -28.0950 O.3          1 FAD501   0.0000
     8 C3B        -20.5460    25.1940   -27.2810 C.3          1 FAD501   0.0000
     9 O3B        -20.8170    24.2330   -26.2540 O.3          1 FAD501   0.0000
    10 C2B        -19.9050    26.4620   -26.7260 C.3          1 FAD501   0.0000
    11 O2B        -20.2020    26.6500   -25.3460 O.3          1 FAD501   0.0000
    12 C1B        -18.4170    26.2110   -26.9140 C.3          1 FAD501   0.0000
    13 N9A        -17.5780    27.4260   -27.0850 N.pl3        1 FAD501   0.0000
    14 C8A        -17.7680    28.4010   -27.9890 C.2          1 FAD501   0.0000
    15 N7A        -16.8170    29.3600   -27.9030 N.2          1 FAD501   0.0000
    16 C5A        -15.9820    29.0030   -26.9210 C.ar         1 FAD501   0.0000
    17 C6A        -14.7610    29.5750   -26.3060 C.ar         1 FAD501   0.0000
    18 N6A        -14.2500    30.7450   -26.7520 N.pl3        1 FAD501   0.0000
    19 N1A        -14.1780    28.8850   -25.2940 N.ar         1 FAD501   0.0000
    20 C2A        -14.6820    27.7140   -24.8460 C.ar         1 FAD501   0.0000
    21 N3A        -15.7920    27.1390   -25.3620 N.ar         1 FAD501   0.0000
    22 C4A        -16.4780    27.7220   -26.3830 C.ar         1 FAD501   0.0000
    23 N1         -28.3200    18.7810   -37.5220 N.2          1 FAD501   0.0000
    24 C2         -28.6740    17.5970   -38.0780 C.2          1 FAD501   0.0000
    25 O2         -27.7770    16.9070   -38.6050 O.2          1 FAD501   0.0000
    26 N3         -29.9490    17.1530   -38.0770 N.pl3        1 FAD501   0.0000
    27 C4         -30.9570    17.8530   -37.5250 C.2          1 FAD501   0.0000
    28 O4         -32.1260    17.4080   -37.5440 O.2          1 FAD501   0.0000
    29 C4X        -30.6510    19.1660   -36.8930 C.2          1 FAD501   0.0000
    30 N5         -31.6020    19.9400   -36.3120 N.2          1 FAD501   0.0000
    31 C5X        -31.2880    21.1360   -35.7460 C.ar         1 FAD501   0.0000
    32 C6         -32.2900    21.9060   -35.1540 C.ar         1 FAD501   0.0000
    33 C7         -31.9800    23.1300   -34.5580 C.ar         1 FAD501   0.0000
    34 C7M        -33.0890    23.9360   -33.9300 C.3          1 FAD501   0.0000
    35 C8         -30.5630    23.6180   -34.5610 C.ar         1 FAD501   0.0000
    36 C8M        -30.1640    24.9280   -33.9370 C.3          1 FAD501   0.0000
    37 C9         -29.5620    22.8520   -35.1480 C.ar         1 FAD501   0.0000
    38 C9A        -29.8660    21.6250   -35.7400 C.ar         1 FAD501   0.0000
    39 N10        -28.8550    20.8280   -36.3350 N.pl3        1 FAD501   0.0000
    40 C10        -29.2250    19.5970   -36.9280 C.2          1 FAD501   0.0000
    41 C1'        -27.4610    21.2890   -36.3870 C.3          1 FAD501   0.0000
    42 C2'        -26.5200    20.7650   -35.3190 C.3          1 FAD501   0.0000
    43 O2'        -27.1560    20.8200   -34.0360 O.3          1 FAD501   0.0000
    44 C3'        -25.2800    21.6580   -35.2980 C.3          1 FAD501   0.0000
    45 O3'        -24.8570    21.9940   -36.6340 O.3          1 FAD501   0.0000
    46 C4'        -24.1250    21.0120   -34.5430 C.3          1 FAD501   0.0000
    47 O4'        -24.5130    20.7080   -33.1950 O.3          1 FAD501   0.0000
    48 C5'        -22.9350    21.9520   -34.5110 C.3          1 FAD501   0.0000
    49 O5'        -22.0070    21.4620   -33.5560 O.3          1 FAD501   0.0000
    50 P          -20.8330    22.4060   -33.0210 P.3          1 FAD501   0.0000
    51 O1P        -20.0270    21.5790   -32.0530 O.co2        1 FAD501   0.0000
    52 O2P        -20.1590    23.0210   -34.2130 O.co2        1 FAD501  -1.0000
    53 O3P        -21.5950    23.5950   -32.2400 O.3          1 FAD501   0.0000
    54 H5B1       -20.5036    25.3745   -29.8526 H            1 FAD501   0.0000
    55 H5B2       -19.1720    24.5220   -30.2610 H            1 FAD501   0.0000
    56 H4B        -19.2853    23.6612   -27.9058 H            1 FAD501   0.0000
    57 H3B        -21.3802    25.4135   -27.7869 H            1 FAD501   0.0000
    58 H5         -19.9755    24.0368   -25.7507 H            1 FAD501   0.0000
    59 H2B        -20.1936    27.2592   -27.2563 H            1 FAD501   0.0000
    60 H7         -19.5012    26.2027   -24.7903 H            1 FAD501   0.0000
    61 H1B        -18.0741    25.6845   -26.1361 H            1 FAD501   0.0000
    62 H8A        -18.5214    28.4164   -28.6464 H            1 FAD501   0.0000
    63 H6A1       -13.4257    31.1234   -26.3309 H            1 FAD501   0.0000
    64 H6A2       -14.6965    31.2317   -27.5028 H            1 FAD501   0.0000
    65 H2A        -14.2110    27.2497   -24.0959 H            1 FAD501   0.0000
    66 H13        -30.1519    16.2710   -38.5024 H            1 FAD501   0.0000
    67 H14        -33.2352    21.5794   -35.1566 H            1 FAD501   0.0000
    68 H7M1       -32.7126    24.7801   -33.5482 H            1 FAD501   0.0000
    69 H7M2       -33.7726    24.1602   -34.6245 H            1 FAD501   0.0000
    70 H7M3       -33.5173    23.4022   -33.2008 H            1 FAD501   0.0000
    71 H8M1       -29.1794    25.0637   -34.0475 H            1 FAD501   0.0000
    72 H8M2       -30.6557    25.6743   -34.3855 H            1 FAD501   0.0000
    73 H8M3       -30.3917    24.9165   -32.9633 H            1 FAD501   0.0000
    74 H21        -28.6181    23.1823   -35.1460 H            1 FAD501   0.0000
    75 H1'1       -27.4707    22.2865   -36.3169 H            1 FAD501   0.0000
    76 H1'2       -27.0879    21.0208   -37.2752 H            1 FAD501   0.0000
    77 H2'        -26.2577    19.8231   -35.5288 H            1 FAD501   0.0000
    78 H25        -26.4644    20.9566   -33.3267 H            1 FAD501   0.0000
    79 H3'        -25.5194    22.5073   -34.8275 H            1 FAD501   0.0000
    80 H27        -25.3102    22.8365   -36.9252 H            1 FAD501   0.0000
    81 H4'        -23.8622    20.1661   -35.0072 H            1 FAD501   0.0000
    82 H29        -23.9183    21.1988   -32.5582 H            1 FAD501   0.0000
    83 H5'1       -23.2356    22.8696   -34.2508 H            1 FAD501   0.0000
    84 H5'2       -22.5058    21.9853   -35.4136 H            1 FAD501   0.0000
@<TRIPOS>BOND
     1    1    2      ar
     2    1    3      ar
     3    1    4       1
     4    1   53       1
     5    4    5       1
     6    5    6       1
     7    6    7       1
     8    6    8       1
     9    7   12       1
    10    8    9       1
    11    8   10       1
    12   10   11       1
    13   10   12       1
    14   12   13       1
    15   13   14       1
    16   13   22       1
    17   14   15       2
    18   15   16       1
    19   16   17      ar
    20   16   22      ar
    21   17   18       1
    22   17   19      ar
    23   19   20      ar
    24   20   21      ar
    25   21   22      ar
    26   23   24       1
    27   23   40       2
    28   24   25       2
    29   24   26       1
    30   26   27       1
    31   27   28       2
    32   27   29       1
    33   29   30       2
    34   29   40       1
    35   30   31       1
    36   31   32      ar
    37   31   38      ar
    38   32   33      ar
    39   33   34       1
    40   33   35      ar
    41   35   36       1
    42   35   37      ar
    43   37   38      ar
    44   38   39       1
    45   39   40       1
    46   39   41       1
    47   41   42       1
    48   42   43       1
    49   42   44       1
    50   44   45       1
    51   44   46       1
    52   46   47       1
    53   46   48       1
    54   48   49       1
    55   49   50       1
    56   50   51      ar
    57   50   52      ar
    58   50   53       1
    59   48   84       1
    60    5   54       1
    61    5   55       1
    62    6   56       1
    63    8   57       1
    64    9   58       1
    65   10   59       1
    66   11   60       1
    67   12   61       1
    68   14   62       1
    69   18   63       1
    70   18   64       1
    71   20   65       1
    72   26   66       1
    73   32   67       1
    74   34   68       1
    75   34   69       1
    76   34   70       1
    77   36   71       1
    78   36   72       1
    79   36   73       1
    80   37   74       1
    81   41   75       1
    82   41   76       1
    83   42   77       1
    84   43   78       1
    85   44   79       1
    86   45   80       1
    87   46   81       1
    88   47   82       1
    89   48   83       1
@<TRIPOS>SUBSTRUCTURE
     1 FAD501      1 GROUP             4 C     FAD     0 **** FAD C 501
