@<TRIPOS>MOLECULE
3vqu_O22_1_ligand
   37    38     1     0     0
SMALL
NO_CHARGES


@<TRIPOS>ATOM
     1 O2          -1.2880   -38.1520    -5.7270 O.2          1 O22909   0.0000
     2 C15         -1.6740   -38.0710    -6.8550 C.2          1 O22909   0.0000
     3 N4          -2.3640   -39.0410    -7.3740 N.am         1 O22909   0.0000
     4 C12         -1.3440   -36.8670    -7.6530 C.ar         1 O22909   0.0000
     5 C11         -0.7560   -36.9960    -8.8760 C.ar         1 O22909   0.0000
     6 C10         -0.4460   -35.8810    -9.6070 C.ar         1 O22909   0.0000
     7 C13         -1.6000   -35.6260    -7.1510 C.ar         1 O22909   0.0000
     8 C14         -1.2870   -34.5200    -7.8830 C.ar         1 O22909   0.0000
     9 C9          -0.7020   -34.6440    -9.1050 C.ar         1 O22909   0.0000
    10 N3          -0.4130   -33.5410    -9.7850 N.pl3        1 O22909   0.0000
    11 C8           0.4390   -33.4370   -10.8000 C.ar         1 O22909   0.0000
    12 C7           0.6960   -32.1820   -11.2600 C.ar         1 O22909   0.0000
    13 C6           1.5480   -31.9500   -12.2880 C.ar         1 O22909   0.0000
    14 N2           1.7640   -30.7120   -12.7040 N.pl3        1 O22909   0.0000
    15 C4           2.2040   -33.0810   -12.9090 C.ar         1 O22909   0.0000
    16 C5           3.0150   -32.9010   -13.8840 C.1          1 O22909   0.0000
    17 N1           3.7450   -32.7320   -14.7500 N.1          1 O22909   0.0000
    18 N5           0.9960   -34.5000   -11.3400 N.ar         1 O22909   0.0000
    19 C3           1.8470   -34.3950   -12.3460 C.ar         1 O22909   0.0000
    20 O1           2.3540   -35.5430   -12.7960 O.3          1 O22909   0.0000
    21 C2           1.8120   -36.6820   -12.2150 C.3          1 O22909   0.0000
    22 C1           2.5950   -37.8280   -12.7560 C.3          1 O22909   0.0000
    23 H1          -2.6879   -38.9750    -8.3178 H            1 O22909   0.0000
    24 H2          -2.5715   -39.8539    -6.8299 H            1 O22909   0.0000
    25 H3          -0.5512   -37.9050    -9.2391 H            1 O22909   0.0000
    26 H4          -0.0306   -35.9766   -10.5116 H            1 O22909   0.0000
    27 H5          -2.0167   -35.5273    -6.2473 H            1 O22909   0.0000
    28 H6          -1.4888   -33.6106    -7.5193 H            1 O22909   0.0000
    29 H7          -0.8837   -32.7041    -9.5055 H            1 O22909   0.0000
    30 H8           0.2409   -31.4052   -10.8248 H            1 O22909   0.0000
    31 H9           2.3929   -30.5420   -13.4627 H            1 O22909   0.0000
    32 H10          1.2983   -29.9468   -12.2596 H            1 O22909   0.0000
    33 H11          0.8471   -36.7727   -12.4614 H            1 O22909   0.0000
    34 H12          1.8993   -36.6400   -11.2197 H            1 O22909   0.0000
    35 H13          2.2465   -38.6819   -12.3694 H            1 O22909   0.0000
    36 H14          2.5060   -37.8521   -13.7517 H            1 O22909   0.0000
    37 H15          3.5582   -37.7194   -12.5100 H            1 O22909   0.0000
@<TRIPOS>BOND
     1    1    2       2
     2    2    3      am
     3    2    4       1
     4    4    5      ar
     5    4    7      ar
     6    5    6      ar
     7    6    9      ar
     8    7    8      ar
     9    8    9      ar
    10    9   10       1
    11   10   11       1
    12   11   12      ar
    13   11   18      ar
    14   12   13      ar
    15   13   14       1
    16   13   15      ar
    17   15   16       1
    18   15   19      ar
    19   16   17       3
    20   18   19      ar
    21   19   20       1
    22   20   21       1
    23   21   22       1
    24    3   23       1
    25    3   24       1
    26    5   25       1
    27    6   26       1
    28    7   27       1
    29    8   28       1
    30   10   29       1
    31   12   30       1
    32   14   31       1
    33   14   32       1
    34   21   33       1
    35   21   34       1
    36   22   35       1
    37   22   36       1
    38   22   37       1
@<TRIPOS>SUBSTRUCTURE
     1 O22909      1 GROUP             4 A     O22     0 **** O22 A 909
