@<TRIPOS>MOLECULE
1shj_NXN_1_ligand
   27    27     1     0     0
SMALL
NO_CHARGES


@<TRIPOS>ATOM
     1 O17         48.1480    16.5350     1.7180 O.2          1 NXN401   0.0000
     2 C12         49.3660    16.4580     1.8460 C.2          1 NXN401   0.0000
     3 N1          50.0070    16.5390     3.0240 N.am         1 NXN401   0.0000
     4 C14         49.4110    17.0470     4.2540 C.3          1 NXN401   0.0000
     5 C15         50.2470    16.6520     5.4650 C.3          1 NXN401   0.0000
     6 S19         51.4140    17.9850     5.8010 S.3          1 NXN401   0.0000
     7 C9          50.2500    16.2680     0.6310 C.3          1 NXN401   0.0000
     8 O18         51.4800    16.9400     0.9100 O.3          1 NXN401   0.0000
     9 C10         52.6240    16.8660     0.1490 C.ar         1 NXN401   0.0000
    10 C6          52.6920    16.1130    -1.0260 C.ar         1 NXN401   0.0000
    11 C5          53.8780    16.0720    -1.7560 C.ar         1 NXN401   0.0000
    12 C8          53.7430    17.5710     0.5770 C.ar         1 NXN401   0.0000
    13 CL4         53.6930    18.5450     2.0700 Cl           1 NXN401   0.0000
    14 C11         54.9230    17.5350    -0.1390 C.ar         1 NXN401   0.0000
    15 C16         54.9730    16.7890    -1.2980 C.ar         1 NXN401   0.0000
    16 CL3         56.5020    16.7620    -2.1940 Cl           1 NXN401   0.0000
    17 H3          50.9574    16.2299     3.0597 H            1 NXN401   0.0000
    18 H4          48.4910    16.6679     4.3532 H            1 NXN401   0.0000
    19 H5          49.3570    18.0443     4.2044 H            1 NXN401   0.0000
    20 H6          50.7449    15.8066     5.2717 H            1 NXN401   0.0000
    21 H7          49.6522    16.5149     6.2571 H            1 NXN401   0.0000
    22 H1          49.8155    16.6656    -0.1771 H            1 NXN401   0.0000
    23 H2          50.4167    15.2945     0.4748 H            1 NXN401   0.0000
    24 H8          51.8911    15.6046    -1.3423 H            1 NXN401   0.0000
    25 H9          53.9386    15.5341    -2.5968 H            1 NXN401   0.0000
    26 H10         55.7261    18.0402     0.1768 H            1 NXN401   0.0000
    27 H110        50.4110    19.8230     6.0330 H            1 NXN401   0.0000
@<TRIPOS>BOND
     1   14   26       1
     2    6   27       1
     3    1    2       2
     4    2    3      am
     5    2    7       1
     6    3    4       1
     7    4    5       1
     8    5    6       1
     9    7    8       1
    10    8    9       1
    11    9   10      ar
    12    9   12      ar
    13   10   11      ar
    14   11   15      ar
    15   12   13       1
    16   12   14      ar
    17   14   15      ar
    18   15   16       1
    19    3   17       1
    20    4   18       1
    21    4   19       1
    22    5   20       1
    23    5   21       1
    24   11   25       1
    25    7   22       1
    26    7   23       1
    27   10   24       1
@<TRIPOS>SUBSTRUCTURE
     1 NXN401      1 GROUP             4 A     NXN     0 **** NXN A 401
