@<TRIPOS>MOLECULE
1sez_FAD_4_ligand
   84    89     1     0     0
SMALL
NO_CHARGES


@<TRIPOS>ATOM
     1 PA         -59.2630    45.2920    58.0160 P.3          1 FAD610   0.0000
     2 O1A        -59.6840    45.2070    59.4350 O.co2        1 FAD610   0.0000
     3 O2A        -57.8380    45.4760    57.6730 O.co2        1 FAD610  -1.0000
     4 O5B        -60.0470    46.4480    57.2780 O.3          1 FAD610   0.0000
     5 C5B        -61.4680    46.5770    57.4050 C.3          1 FAD610   0.0000
     6 C4B        -61.7120    48.0800    57.3900 C.3          1 FAD610   0.0000
     7 O4B        -63.0570    48.3290    57.7700 O.3          1 FAD610   0.0000
     8 C3B        -60.8320    48.8760    58.3780 C.3          1 FAD610   0.0000
     9 O3B        -59.9210    49.7210    57.7140 O.3          1 FAD610   0.0000
    10 C2B        -61.8490    49.5830    59.2430 C.3          1 FAD610   0.0000
    11 O2B        -61.4720    50.8180    59.7980 O.3          1 FAD610   0.0000
    12 C1B        -63.0630    49.6310    58.3100 C.3          1 FAD610   0.0000
    13 N9A        -64.3530    49.8680    58.9690 N.pl3        1 FAD610   0.0000
    14 C8A        -64.8760    49.1890    60.0460 C.2          1 FAD610   0.0000
    15 N7A        -66.0640    49.6540    60.4030 N.2          1 FAD610   0.0000
    16 C5A        -66.3230    50.6800    59.5210 C.ar         1 FAD610   0.0000
    17 C6A        -67.4230    51.5620    59.3910 C.ar         1 FAD610   0.0000
    18 N6A        -68.4810    51.5360    60.1810 N.pl3        1 FAD610   0.0000
    19 N1A        -67.3720    52.5020    58.3750 N.ar         1 FAD610   0.0000
    20 C2A        -66.2720    52.5520    57.5360 C.ar         1 FAD610   0.0000
    21 N3A        -65.1870    51.7370    57.6120 N.ar         1 FAD610   0.0000
    22 C4A        -65.2610    50.8200    58.6190 C.ar         1 FAD610   0.0000
    23 N1         -51.4290    38.3620    57.8820 N.2          1 FAD610   0.0000
    24 C2         -50.3180    37.8800    57.2010 C.2          1 FAD610   0.0000
    25 O2         -50.4170    37.3520    56.0980 O.2          1 FAD610   0.0000
    26 N3         -49.0520    38.0150    57.8060 N.pl3        1 FAD610   0.0000
    27 C4         -48.8330    38.5960    59.0400 C.2          1 FAD610   0.0000
    28 O4         -47.6760    38.6850    59.5090 O.2          1 FAD610   0.0000
    29 C4X        -49.9710    39.0860    59.7300 C.2          1 FAD610   0.0000
    30 N5         -49.8360    39.6940    60.9800 N.2          1 FAD610   0.0000
    31 C5X        -50.9370    40.1970    61.6550 C.ar         1 FAD610   0.0000
    32 C6         -50.7690    40.8110    62.8950 C.ar         1 FAD610   0.0000
    33 C7         -51.8420    41.3470    63.6170 C.ar         1 FAD610   0.0000
    34 C7M        -51.5870    42.0010    64.9550 C.3          1 FAD610   0.0000
    35 C8         -53.1560    41.2520    63.0450 C.ar         1 FAD610   0.0000
    36 C8M        -54.3590    41.8010    63.7570 C.3          1 FAD610   0.0000
    37 C9         -53.3490    40.6300    61.7860 C.ar         1 FAD610   0.0000
    38 C9A        -52.2530    40.0900    61.0640 C.ar         1 FAD610   0.0000
    39 N10        -52.3930    39.4520    59.7850 N.pl3        1 FAD610   0.0000
    40 C10        -51.2620    38.9520    59.1130 C.2          1 FAD610   0.0000
    41 C1'        -53.7340    39.3000    59.1310 C.3          1 FAD610   0.0000
    42 C2'        -54.0450    40.3060    58.0150 C.3          1 FAD610   0.0000
    43 O2'        -53.3020    41.4770    58.2400 O.3          1 FAD610   0.0000
    44 C3'        -55.5570    40.5960    58.0310 C.3          1 FAD610   0.0000
    45 O3'        -56.2980    39.3890    57.8030 O.3          1 FAD610   0.0000
    46 C4'        -56.0700    41.5750    56.9550 C.3          1 FAD610   0.0000
    47 O4'        -55.4040    42.8240    57.0250 O.3          1 FAD610   0.0000
    48 C5'        -57.5740    41.8010    57.1170 C.3          1 FAD610   0.0000
    49 O5'        -57.9760    42.7110    56.0880 O.3          1 FAD610   0.0000
    50 P          -59.4620    43.2260    55.9440 P.3          1 FAD610   0.0000
    51 O1P        -59.4370    44.1390    54.7740 O.co2        1 FAD610   0.0000
    52 O2P        -60.4030    42.0620    55.8670 O.co2        1 FAD610  -1.0000
    53 O3P        -59.8310    43.9760    57.2910 O.3          1 FAD610   0.0000
    54 H5B1       -61.7848    46.1752    58.2642 H            1 FAD610   0.0000
    55 H5B2       -61.9338    46.1348    56.6385 H            1 FAD610   0.0000
    56 H4B        -61.5628    48.4275    56.4643 H            1 FAD610   0.0000
    57 H3B        -60.3193    48.2311    58.9448 H            1 FAD610   0.0000
    58 H5         -60.3432    50.6153    57.5655 H            1 FAD610   0.0000
    59 H2B        -62.0765    48.9707    60.0002 H            1 FAD610   0.0000
    60 H7         -61.2531    51.4605    59.0637 H            1 FAD610   0.0000
    61 H1B        -62.9159    50.3055    57.5865 H            1 FAD610   0.0000
    62 H8A        -64.4125    48.4317    60.5061 H            1 FAD610   0.0000
    63 H6A1       -69.2274    52.1861    60.0387 H            1 FAD610   0.0000
    64 H6A2       -68.5357    50.8662    60.9215 H            1 FAD610   0.0000
    65 H2A        -66.2760    53.2447    56.8148 H            1 FAD610   0.0000
    66 H13        -48.2581    37.6663    57.3078 H            1 FAD610   0.0000
    67 H14        -49.8492    40.8708    63.2827 H            1 FAD610   0.0000
    68 H7M1       -52.4515    42.3289    65.3359 H            1 FAD610   0.0000
    69 H7M2       -51.1791    41.3348    65.5793 H            1 FAD610   0.0000
    70 H7M3       -50.9617    42.7721    64.8353 H            1 FAD610   0.0000
    71 H8M1       -55.1762    41.6401    63.2035 H            1 FAD610   0.0000
    72 H8M2       -54.4601    41.3447    64.6411 H            1 FAD610   0.0000
    73 H8M3       -54.2418    42.7837    63.9005 H            1 FAD610   0.0000
    74 H21        -54.2701    40.5709    61.4012 H            1 FAD610   0.0000
    75 H1'1       -54.4342    39.3987    59.8381 H            1 FAD610   0.0000
    76 H1'2       -53.7830    38.3812    58.7394 H            1 FAD610   0.0000
    77 H2'        -53.7898    39.9135    57.1313 H            1 FAD610   0.0000
    78 H25        -53.1578    41.5967    59.2223 H            1 FAD610   0.0000
    79 H3'        -55.8028    40.9552    58.9313 H            1 FAD610   0.0000
    80 H27        -55.7819    38.6091    58.1572 H            1 FAD610   0.0000
    81 H4'        -55.9030    41.1746    56.0540 H            1 FAD610   0.0000
    82 H29        -54.4754    42.6877    57.3703 H            1 FAD610   0.0000
    83 H5'1       -57.7670    42.1932    58.0164 H            1 FAD610   0.0000
    84 H5'2       -58.0636    40.9345    57.0191 H            1 FAD610   0.0000
@<TRIPOS>BOND
     1    1    2      ar
     2    1    3      ar
     3    1    4       1
     4    1   53       1
     5    4    5       1
     6    5    6       1
     7    6    7       1
     8    6    8       1
     9    7   12       1
    10    8    9       1
    11    8   10       1
    12   10   11       1
    13   10   12       1
    14   12   13       1
    15   13   14       1
    16   13   22       1
    17   14   15       2
    18   15   16       1
    19   16   17      ar
    20   16   22      ar
    21   17   18       1
    22   17   19      ar
    23   19   20      ar
    24   20   21      ar
    25   21   22      ar
    26   23   24       1
    27   23   40       2
    28   24   25       2
    29   24   26       1
    30   26   27       1
    31   27   28       2
    32   27   29       1
    33   29   30       2
    34   29   40       1
    35   30   31       1
    36   31   32      ar
    37   31   38      ar
    38   32   33      ar
    39   33   34       1
    40   33   35      ar
    41   35   36       1
    42   35   37      ar
    43   37   38      ar
    44   38   39       1
    45   39   40       1
    46   39   41       1
    47   41   42       1
    48   42   43       1
    49   42   44       1
    50   44   45       1
    51   44   46       1
    52   46   47       1
    53   46   48       1
    54   48   49       1
    55   49   50       1
    56   50   51      ar
    57   50   52      ar
    58   50   53       1
    59   48   84       1
    60    5   54       1
    61    5   55       1
    62    6   56       1
    63    8   57       1
    64    9   58       1
    65   10   59       1
    66   11   60       1
    67   12   61       1
    68   14   62       1
    69   18   63       1
    70   18   64       1
    71   20   65       1
    72   26   66       1
    73   32   67       1
    74   34   68       1
    75   34   69       1
    76   34   70       1
    77   36   71       1
    78   36   72       1
    79   36   73       1
    80   37   74       1
    81   41   75       1
    82   41   76       1
    83   42   77       1
    84   43   78       1
    85   44   79       1
    86   45   80       1
    87   46   81       1
    88   47   82       1
    89   48   83       1
@<TRIPOS>SUBSTRUCTURE
     1 FAD610      1 GROUP             4 B     FAD     0 **** FAD B 610
