@<TRIPOS>MOLECULE
2x0i_NAI_1_ligand
   71    75     1     0     0
SMALL
NO_CHARGES


@<TRIPOS>ATOM
     1 PA          19.0340    28.0030     5.9360 P.3          1 NAI1000   0.0000
     2 O2A         17.5700    27.5280     5.7040 O.co2        1 NAI1000   0.0000
     3 O1A         19.9810    28.1040     4.6910 O.co2        1 NAI1000  -1.0000
     4 O5B         19.3810    28.7480     7.2790 O.3          1 NAI1000   0.0000
     5 C5B         18.5380    28.7070     8.3820 C.3          1 NAI1000   0.0000
     6 C4B         19.1800    28.2700     9.6810 C.3          1 NAI1000   0.0000
     7 O4B         18.5390    28.7850    10.8300 O.3          1 NAI1000   0.0000
     8 C3B         19.1640    26.7870     9.8030 C.3          1 NAI1000   0.0000
     9 O3B         20.4540    26.2870     9.7920 O.3          1 NAI1000   0.0000
    10 C2B         18.4310    26.5180    11.0400 C.3          1 NAI1000   0.0000
    11 O2B         18.9510    25.4540    11.7400 O.3          1 NAI1000   0.0000
    12 C1B         18.5310    27.8030    11.8040 C.3          1 NAI1000   0.0000
    13 N9A         17.4630    27.9590    12.7870 N.pl3        1 NAI1000   0.0000
    14 C8A         16.1560    27.6930    12.6100 C.2          1 NAI1000   0.0000
    15 N7A         15.5030    27.9890    13.7520 N.2          1 NAI1000   0.0000
    16 C5A         16.3870    28.4680    14.6450 C.ar         1 NAI1000   0.0000
    17 C6A         16.3200    28.9350    15.9770 C.ar         1 NAI1000   0.0000
    18 N6A         15.0620    28.9900    16.6720 N.pl3        1 NAI1000   0.0000
    19 N1A         17.4320    29.3310    16.6080 N.ar         1 NAI1000   0.0000
    20 C2A         18.6090    29.2860    15.9640 C.ar         1 NAI1000   0.0000
    21 N3A         18.7250    28.8460    14.7030 N.ar         1 NAI1000   0.0000
    22 C4A         17.6440    28.4360    14.0320 C.ar         1 NAI1000   0.0000
    23 O3          18.5260    29.4690     5.5750 O.3          1 NAI1000   0.0000
    24 PN          19.1360    30.5390     4.5670 P.3          1 NAI1000   0.0000
    25 O1N         19.0940    30.1060     3.1190 O.co2        1 NAI1000   0.0000
    26 O2N         20.5770    30.8330     4.9250 O.co2        1 NAI1000  -1.0000
    27 O5D         18.2860    31.8530     4.7280 O.3          1 NAI1000   0.0000
    28 C5D         18.0840    32.3860     6.0060 C.3          1 NAI1000   0.0000
    29 C4D         17.0200    33.4510     6.1690 C.3          1 NAI1000   0.0000
    30 O4D         17.5380    34.6410     5.7370 O.3          1 NAI1000   0.0000
    31 C3D         15.7700    33.2090     5.3550 C.3          1 NAI1000   0.0000
    32 O3D         14.6750    33.7640     5.9650 O.3          1 NAI1000   0.0000
    33 C2D         16.0470    33.8910     4.0810 C.3          1 NAI1000   0.0000
    34 O2D         14.9500    34.2920     3.3580 O.3          1 NAI1000   0.0000
    35 C1D         16.7430    35.0940     4.5820 C.3          1 NAI1000   0.0000
    36 N1N         17.4440    35.8920     3.4890 N.pl3        1 NAI1000   0.0000
    37 C2N         17.4250    37.2190     3.5940 C.2          1 NAI1000   0.0000
    38 C3N         18.0260    38.0210     2.6240 C.2          1 NAI1000   0.0000
    39 C7N         18.0030    39.5000     2.7680 C.2          1 NAI1000   0.0000
    40 O7N         18.4010    40.1730     1.8370 O.2          1 NAI1000   0.0000
    41 N7N         17.4070    40.1150     3.9270 N.am         1 NAI1000   0.0000
    42 C4N         18.6460    37.4090     1.5310 C.3          1 NAI1000   0.0000
    43 C5N         18.6430    36.0080     1.4610 C.2          1 NAI1000   0.0000
    44 C6N         18.0230    35.2490     2.4680 C.2          1 NAI1000   0.0000
    45 H5B1        17.7944    28.0706     8.1772 H            1 NAI1000   0.0000
    46 H5B2        18.1638    29.6244     8.5173 H            1 NAI1000   0.0000
    47 H4B         20.1314    28.5781     9.6838 H            1 NAI1000   0.0000
    48 H3B         18.6572    26.4010     9.0322 H            1 NAI1000   0.0000
    49 H5          20.9669    26.6709    10.5598 H            1 NAI1000   0.0000
    50 H2B         17.4720    26.3351    10.8236 H            1 NAI1000   0.0000
    51 H7          19.6491    25.7827    12.3761 H            1 NAI1000   0.0000
    52 H1B         19.4091    27.8216    12.2822 H            1 NAI1000   0.0000
    53 H8A         15.7396    27.3364    11.7737 H            1 NAI1000   0.0000
    54 H6A1        15.0256    29.3221    17.6145 H            1 NAI1000   0.0000
    55 H6A2        14.2238    28.6961    16.2127 H            1 NAI1000   0.0000
    56 H2A         19.4312    29.5926    16.4435 H            1 NAI1000   0.0000
    57 H5D1        18.9519    32.7840     6.3033 H            1 NAI1000   0.0000
    58 H5D2        17.8409    31.6272     6.6102 H            1 NAI1000   0.0000
    59 H4D         16.7752    33.5285     7.1355 H            1 NAI1000   0.0000
    60 H3D         15.6312    32.2299     5.2067 H            1 NAI1000   0.0000
    61 H17         13.8612    33.5919     5.4099 H            1 NAI1000   0.0000
    62 H2D         16.6599    33.3409     3.5138 H            1 NAI1000   0.0000
    63 H19         14.9595    33.8461     2.4630 H            1 NAI1000   0.0000
    64 H1D         16.0324    35.6929     4.9512 H            1 NAI1000   0.0000
    65 H2N         16.9743    37.6460     4.3779 H            1 NAI1000   0.0000
    66 H7N1        17.3965    41.1111     4.0147 H            1 NAI1000   0.0000
    67 H7N2        17.0040    39.5457     4.6435 H            1 NAI1000   0.0000
    68 H4N1        19.6018    37.7030     1.5304 H            1 NAI1000   0.0000
    69 H4N2        18.1927    37.7472     0.7063 H            1 NAI1000   0.0000
    70 H5N         19.0841    35.5472     0.6909 H            1 NAI1000   0.0000
    71 H6N         18.0146    34.2501     2.4227 H            1 NAI1000   0.0000
@<TRIPOS>BOND
     1    1    2      ar
     2    1    3      ar
     3    1    4       1
     4    1   23       1
     5    4    5       1
     6    5    6       1
     7    6    7       1
     8    6    8       1
     9    7   12       1
    10    8    9       1
    11    8   10       1
    12   10   11       1
    13   10   12       1
    14   12   13       1
    15   13   14       1
    16   13   22       1
    17   14   15       2
    18   15   16       1
    19   16   17      ar
    20   16   22      ar
    21   17   18       1
    22   17   19      ar
    23   19   20      ar
    24   20   21      ar
    25   21   22      ar
    26   23   24       1
    27   24   25      ar
    28   24   26      ar
    29   24   27       1
    30   27   28       1
    31   28   29       1
    32   29   30       1
    33   29   31       1
    34   30   35       1
    35   31   32       1
    36   31   33       1
    37   33   34       1
    38   33   35       1
    39   35   36       1
    40   36   37       1
    41   36   44       1
    42   37   38       2
    43   38   39       1
    44   38   42       1
    45   39   40       2
    46   39   41      am
    47   42   43       1
    48   43   44       2
    49   44   71       1
    50    5   45       1
    51    5   46       1
    52    6   47       1
    53    8   48       1
    54    9   49       1
    55   10   50       1
    56   11   51       1
    57   12   52       1
    58   14   53       1
    59   18   54       1
    60   18   55       1
    61   20   56       1
    62   43   70       1
    63   28   57       1
    64   28   58       1
    65   29   59       1
    66   31   60       1
    67   32   61       1
    68   33   62       1
    69   34   63       1
    70   35   64       1
    71   37   65       1
    72   41   66       1
    73   41   67       1
    74   42   68       1
    75   42   69       1
@<TRIPOS>SUBSTRUCTURE
     1 NAI1000     1 GROUP             4 A     NAI     0 **** NAI A1000
