@<TRIPOS>MOLECULE
4js0_GNP_1_ligand
   45    47     1     0     0
SMALL
NO_CHARGES


@<TRIPOS>ATOM
     1 PG           5.4200   -31.1520    16.0320 P.3          1 GNP201   0.0000
     2 O1G          5.2850   -29.7370    16.4820 O.co2        1 GNP201   0.0000
     3 O2G          6.5980   -31.9650    16.4570 O.co2        1 GNP201  -1.0000
     4 O3G          4.1270   -31.8430    16.4520 O.co2        1 GNP201  -1.0000
     5 N3B          5.4180   -31.1630    14.3860 N.3          1 GNP201   0.0000
     6 PB           6.6290   -30.7740    13.3680 P.3          1 GNP201   0.0000
     7 O1B          7.9250   -31.4230    13.7540 O.co2        1 GNP201   0.0000
     8 O2B          6.6400   -29.3330    13.0440 O.co2        1 GNP201  -1.0000
     9 O3A          6.3020   -31.4900    12.0000 O.3          1 GNP201   0.0000
    10 PA           6.9620   -32.6930    11.2780 P.3          1 GNP201   0.0000
    11 O1A          8.3610   -32.3340    10.9100 O.co2        1 GNP201   0.0000
    12 O2A          6.8610   -33.9640    12.0390 O.co2        1 GNP201  -1.0000
    13 O5'          6.2050   -32.9090     9.9030 O.3          1 GNP201   0.0000
    14 C5'          4.7990   -32.8480     9.9340 C.3          1 GNP201   0.0000
    15 C4'          4.2040   -33.4300     8.6750 C.3          1 GNP201   0.0000
    16 O4'          4.5590   -32.6260     7.5310 O.3          1 GNP201   0.0000
    17 C3'          4.6120   -34.8430     8.3460 C.3          1 GNP201   0.0000
    18 O3'          3.4720   -35.5330     7.7970 O.3          1 GNP201   0.0000
    19 C2'          5.6710   -34.6630     7.2750 C.3          1 GNP201   0.0000
    20 O2'          5.6580   -35.6690     6.3050 O.3          1 GNP201   0.0000
    21 C1'          5.2360   -33.4040     6.5710 C.3          1 GNP201   0.0000
    22 N9           6.3510   -32.6040     6.0330 N.pl3        1 GNP201   0.0000
    23 C8           7.3680   -32.0360     6.7640 C.2          1 GNP201   0.0000
    24 N7           8.2220   -31.3590     6.0420 N.2          1 GNP201   0.0000
    25 C5           7.7360   -31.4810     4.7490 C.2          1 GNP201   0.0000
    26 C6           8.2450   -30.9580     3.5380 C.2          1 GNP201   0.0000
    27 O6           9.2600   -30.2710     3.3920 O.2          1 GNP201   0.0000
    28 N1           7.4600   -31.2900     2.4390 N.pl3        1 GNP201   0.0000
    29 C2           6.3310   -32.0720     2.5000 C.2          1 GNP201   0.0000
    30 N2           5.6860   -32.3090     1.3400 N.pl3        1 GNP201   0.0000
    31 N3           5.8420   -32.5640     3.6380 N.2          1 GNP201   0.0000
    32 C4           6.5790   -32.2310     4.7270 C.2          1 GNP201   0.0000
    33 H3B          5.1768   -32.1022    14.1417 H            1 GNP201   0.0000
    34 H5'1         4.5150   -31.8929    10.0186 H            1 GNP201   0.0000
    35 H5'2         4.4666   -33.3657    10.7223 H            1 GNP201   0.0000
    36 H4'          3.2085   -33.4108     8.7677 H            1 GNP201   0.0000
    37 H3'          4.9769   -35.3163     9.1478 H            1 GNP201   0.0000
    38 H6           3.1663   -35.0646     6.9681 H            1 GNP201   0.0000
    39 H2'          6.5804   -34.5583     7.6775 H            1 GNP201   0.0000
    40 H8           6.3762   -35.4924     5.6320 H            1 GNP201   0.0000
    41 H1'          4.6071   -33.6382     5.8296 H            1 GNP201   0.0000
    42 H10          7.4469   -32.1320     7.7562 H            1 GNP201   0.0000
    43 H11          7.7351   -30.9364     1.5450 H            1 GNP201   0.0000
    44 H12          4.8598   -32.8723     1.3334 H            1 GNP201   0.0000
    45 H13          6.0338   -31.9215     0.4863 H            1 GNP201   0.0000
@<TRIPOS>BOND
     1    1    2      ar
     2    1    3      ar
     3    1    4      ar
     4    1    5       1
     5    5    6       1
     6    6    7      ar
     7    6    8      ar
     8    6    9       1
     9    9   10       1
    10   10   11      ar
    11   10   12      ar
    12   10   13       1
    13   13   14       1
    14   14   15       1
    15   15   16       1
    16   15   17       1
    17   16   21       1
    18   17   18       1
    19   17   19       1
    20   19   20       1
    21   19   21       1
    22   21   22       1
    23   22   23       1
    24   22   32       1
    25   23   24       2
    26   24   25       1
    27   25   26       1
    28   25   32       2
    29   26   27       2
    30   26   28       1
    31   28   29       1
    32   29   30       1
    33   29   31       2
    34   31   32       1
    35   30   45       1
    36   30   44       1
    37    5   33       1
    38   28   43       1
    39   23   42       1
    40   14   34       1
    41   14   35       1
    42   15   36       1
    43   17   37       1
    44   18   38       1
    45   19   39       1
    46   20   40       1
    47   21   41       1
@<TRIPOS>SUBSTRUCTURE
     1 GNP201      1 GROUP             4 A     GNP     0 **** GNP A 201
