@<TRIPOS>MOLECULE
4img_NGF_1_ligand
   40    39     1     0     0
SMALL
NO_CHARGES


@<TRIPOS>ATOM
     1 O10         28.9430    30.7440    21.2560 O.2          1 NGF501   0.0000
     2 C10         28.3750    29.7030    20.9210 C.2          1 NGF501   0.0000
     3 C11         27.7050    29.6540    19.5510 C.3          1 NGF501   0.0000
     4 N5          28.3970    28.6040    21.6920 N.am         1 NGF501   0.0000
     5 C5          28.0060    27.2550    21.1850 C.3          1 NGF501   0.0000
     6 C4          27.1370    26.3770    22.0940 C.3          1 NGF501   0.0000
     7 O4          27.6100    26.4660    23.4660 O.3          1 NGF501   0.0000
     8 C3          25.6130    26.4190    21.7130 C.3          1 NGF501   0.0000
     9 C6          29.1160    26.3040    20.7480 C.3          1 NGF501   0.0000
    10 O6          28.4140    25.0830    20.3490 O.3          1 NGF501   0.0000
    11 C2          24.9320    27.3260    22.6710 C.2          1 NGF501   0.0000
    12 O2          25.5290    27.5450    23.6070 O.2          1 NGF501   0.0000
    13 C1          23.6650    27.9610    22.5580 C.2          1 NGF501   0.0000
    14 O1          22.8430    27.7160    21.6760 O.co2        1 NGF501   0.0000
    15 O3          23.3940    28.7620    23.4570 O.co2        1 NGF501  -1.0000
    16 C7          29.8390    26.8640    19.5340 C.3          1 NGF501   0.0000
    17 O7          28.8120    27.2580    18.5920 O.3          1 NGF501   0.0000
    18 C8          30.8130    25.8800    18.8740 C.3          1 NGF501   0.0000
    19 O8          31.5900    25.2130    19.8890 O.3          1 NGF501   0.0000
    20 C9          31.7290    26.5770    17.8700 C.3          1 NGF501   0.0000
    21 O9          32.3160    27.6760    18.5590 O.3          1 NGF501   0.0000
    22 O5          26.2620    29.5200    19.5510 O.3          1 NGF501   0.0000
    23 H1          28.0842    28.8740    19.0532 H            1 NGF501   0.0000
    24 H2          27.9332    30.4999    19.0689 H            1 NGF501   0.0000
    25 H3          28.6871    28.6925    22.6449 H            1 NGF501   0.0000
    26 H4          27.4566    27.4230    20.3665 H            1 NGF501   0.0000
    27 H5          27.4053    25.4511    21.8280 H            1 NGF501   0.0000
    28 H6          28.5583    26.1522    23.5127 H            1 NGF501   0.0000
    29 H7          25.2210    25.5012    21.7758 H            1 NGF501   0.0000
    30 H8          25.5045    26.7648    20.7810 H            1 NGF501   0.0000
    31 H9          29.7538    26.1252    21.4972 H            1 NGF501   0.0000
    32 H10         29.0019    24.2912    20.5148 H            1 NGF501   0.0000
    33 H11         30.3473    27.6790    19.8123 H            1 NGF501   0.0000
    34 H12         29.2400    27.6353    17.7707 H            1 NGF501   0.0000
    35 H13         30.2787    25.1907    18.3848 H            1 NGF501   0.0000
    36 H14         32.4888    24.9772    19.5195 H            1 NGF501   0.0000
    37 H15         31.1996    26.9026    17.0866 H            1 NGF501   0.0000
    38 H16         32.4389    25.9475    17.5542 H            1 NGF501   0.0000
    39 H17         33.1689    27.3819    18.9903 H            1 NGF501   0.0000
    40 H18         26.0173    28.5505    19.5419 H            1 NGF501   0.0000
@<TRIPOS>BOND
     1    1    2       2
     2    2    3       1
     3    2    4      am
     4    3   22       1
     5    4    5       1
     6    5    6       1
     7    5    9       1
     8    6    7       1
     9    6    8       1
    10    8   11       1
    11    9   10       1
    12    9   16       1
    13   11   12       2
    14   11   13       1
    15   13   14      ar
    16   13   15      ar
    17   16   17       1
    18   16   18       1
    19   18   19       1
    20   18   20       1
    21   20   21       1
    22    3   23       1
    23    3   24       1
    24    4   25       1
    25    5   26       1
    26    6   27       1
    27    7   28       1
    28    8   29       1
    29    8   30       1
    30    9   31       1
    31   10   32       1
    32   22   40       1
    33   16   33       1
    34   17   34       1
    35   18   35       1
    36   19   36       1
    37   20   37       1
    38   20   38       1
    39   21   39       1
@<TRIPOS>SUBSTRUCTURE
     1 NGF501      1 GROUP             4 A     NGF     0 **** NGF A 501
