@<TRIPOS>MOLECULE
3mia_ANP_1_ligand
   43    45     1     0     0
SMALL
NO_CHARGES


@<TRIPOS>ATOM
     1 PG          58.9600    15.4530    33.3810 P.3          1 ANP352   0.0000
     2 O1G         60.2760    15.0970    34.0150 O.co2        1 ANP352   0.0000
     3 O2G         58.0860    14.2370    33.4270 O.co2        1 ANP352  -1.0000
     4 O3G         59.1810    15.8640    31.9590 O.co2        1 ANP352  -1.0000
     5 PB          57.0340    17.3540    33.4320 P.3          1 ANP352   0.0000
     6 O1B         56.5150    16.4940    32.4180 O.co2        1 ANP352   0.0000
     7 O2B         55.9520    17.6070    34.3690 O.co2        1 ANP352  -1.0000
     8 N3B         58.2730    16.6720    34.2140 N.3          1 ANP352  -1.0000
     9 PA          58.7310    19.4950    33.3570 P.3          1 ANP352   0.0000
    10 O1A         58.6850    20.8920    32.9650 O.co2        1 ANP352   0.0000
    11 O2A         58.7070    19.4100    34.8400 O.co2        1 ANP352  -1.0000
    12 O3A         57.4760    18.7280    32.7250 O.3          1 ANP352   0.0000
    13 O5'         59.9660    18.8880    32.8180 O.3          1 ANP352   0.0000
    14 C5'         60.9470    19.1840    33.5530 C.3          1 ANP352   0.0000
    15 C4'         62.2140    18.5540    33.1240 C.3          1 ANP352   0.0000
    16 O4'         62.4110    19.2420    31.8670 O.3          1 ANP352   0.0000
    17 C3'         62.9390    19.1900    34.2280 C.3          1 ANP352   0.0000
    18 O3'         63.2230    18.4090    35.3680 O.3          1 ANP352   0.0000
    19 C2'         64.1250    19.8210    33.4720 C.3          1 ANP352   0.0000
    20 O2'         65.2280    18.9350    33.5000 O.3          1 ANP352   0.0000
    21 C1'         63.6060    20.1010    32.0030 C.3          1 ANP352   0.0000
    22 N9          63.1610    21.5160    31.8320 N.pl3        1 ANP352   0.0000
    23 C8          61.8860    22.0910    31.9660 C.2          1 ANP352   0.0000
    24 N7          61.8320    23.3630    31.7600 N.2          1 ANP352   0.0000
    25 C5          63.1460    23.6560    31.4720 C.ar         1 ANP352   0.0000
    26 C6          63.8030    24.8840    31.1480 C.ar         1 ANP352   0.0000
    27 N6          63.1420    26.0160    31.0860 N.pl3        1 ANP352   0.0000
    28 N1          65.1630    24.8590    30.9010 N.ar         1 ANP352   0.0000
    29 C2          65.8490    23.7040    30.9640 C.ar         1 ANP352   0.0000
    30 N3          65.3470    22.4800    31.2640 N.ar         1 ANP352   0.0000
    31 C4          63.9570    22.5400    31.5080 C.ar         1 ANP352   0.0000
    32 H5'1        60.7451    18.8863    34.4861 H            1 ANP352   0.0000
    33 H5'2        61.0658    20.1768    33.5382 H            1 ANP352   0.0000
    34 H4'         62.2298    17.5546    33.0948 H            1 ANP352   0.0000
    35 H3'         62.3678    19.9488    34.5408 H            1 ANP352   0.0000
    36 H5          63.2506    18.9970    36.1764 H            1 ANP352   0.0000
    37 H2'         64.3783    20.6847    33.9078 H            1 ANP352   0.0000
    38 H7          65.4835    18.6912    32.5645 H            1 ANP352   0.0000
    39 H1'         64.3004    19.8592    31.3253 H            1 ANP352   0.0000
    40 H9          61.0779    21.5523    32.2042 H            1 ANP352   0.0000
    41 H10         63.6216    26.8632    30.8575 H            1 ANP352   0.0000
    42 H11         62.1587    26.0314    31.2672 H            1 ANP352   0.0000
    43 H12         66.8288    23.7524    30.7700 H            1 ANP352   0.0000
@<TRIPOS>BOND
     1    1    2      ar
     2    1    3      ar
     3    1    4      ar
     4    1    8       1
     5    5    6      ar
     6    5    7      ar
     7    5    8       1
     8    5   12       1
     9    9   10      ar
    10    9   11      ar
    11    9   12       1
    12    9   13       1
    13   13   14       1
    14   14   15       1
    15   15   16       1
    16   15   17       1
    17   16   21       1
    18   17   18       1
    19   17   19       1
    20   19   20       1
    21   19   21       1
    22   21   22       1
    23   22   23       1
    24   22   31       1
    25   23   24       2
    26   24   25       1
    27   25   26      ar
    28   25   31      ar
    29   26   27       1
    30   26   28      ar
    31   28   29      ar
    32   29   30      ar
    33   30   31      ar
    34   29   43       1
    35   27   42       1
    36   27   41       1
    37   21   39       1
    38   23   40       1
    39   14   32       1
    40   14   33       1
    41   15   34       1
    42   17   35       1
    43   18   36       1
    44   19   37       1
    45   20   38       1
@<TRIPOS>SUBSTRUCTURE
     1 ANP352      1 GROUP             4 A     ANP     0 **** ANP A 352
