@<TRIPOS>MOLECULE
1cf2_NAP_3_ligand
   73    77     1     0     0
SMALL
NO_CHARGES


@<TRIPOS>ATOM
     1 PA          20.7880    44.1310    -6.8320 P.3          1 NAP340   0.0000
     2 O1A         20.5460    44.9510    -5.6210 O.co2        1 NAP340   0.0000
     3 O2A         22.2060    43.9400    -7.1110 O.co2        1 NAP340  -1.0000
     4 O5B         20.0820    44.7940    -8.0960 O.3          1 NAP340   0.0000
     5 C5B         18.7210    45.2990    -8.1450 C.3          1 NAP340   0.0000
     6 C4B         18.6620    46.2120    -9.3710 C.3          1 NAP340   0.0000
     7 O4B         17.3120    46.6910    -9.5750 O.3          1 NAP340   0.0000
     8 C3B         19.5430    47.4720    -9.2050 C.3          1 NAP340   0.0000
     9 O3B         20.1890    47.7910   -10.4160 O.3          1 NAP340   0.0000
    10 C2B         18.5540    48.5930    -8.8700 C.3          1 NAP340   0.0000
    11 O2B         18.9240    49.8180    -9.4950 O.3          1 NAP340   0.0000
    12 C1B         17.3030    48.1150    -9.6160 C.3          1 NAP340   0.0000
    13 N9A         16.0280    48.5110    -9.0180 N.pl3        1 NAP340   0.0000
    14 C8A         15.6330    48.6990    -7.7310 C.2          1 NAP340   0.0000
    15 N7A         14.3490    49.0140    -7.6310 N.2          1 NAP340   0.0000
    16 C5A         13.8870    49.0130    -8.9290 C.ar         1 NAP340   0.0000
    17 C6A         12.6270    49.2490    -9.5080 C.ar         1 NAP340   0.0000
    18 N6A         11.5450    49.5750    -8.8010 N.pl3        1 NAP340   0.0000
    19 N1A         12.5310    49.1610   -10.8570 N.ar         1 NAP340   0.0000
    20 C2A         13.6490    48.8370   -11.5820 C.ar         1 NAP340   0.0000
    21 N3A         14.8610    48.5980   -11.1510 N.ar         1 NAP340   0.0000
    22 C4A         14.9100    48.7170    -9.8050 C.ar         1 NAP340   0.0000
    23 O3          19.9930    42.7400    -6.7070 O.3          1 NAP340   0.0000
    24 PN          20.4630    41.2840    -7.1810 P.3          1 NAP340   0.0000
    25 O1N         21.5600    40.7620    -6.3430 O.co2        1 NAP340   0.0000
    26 O2N         20.8670    41.4510    -8.5810 O.co2        1 NAP340  -1.0000
    27 O5D         19.1280    40.4200    -7.0340 O.3          1 NAP340   0.0000
    28 C5D         18.0270    40.6010    -7.9470 C.3          1 NAP340   0.0000
    29 C4D         17.1000    39.4030    -7.8350 C.3          1 NAP340   0.0000
    30 O4D         17.9060    38.2470    -8.1690 O.3          1 NAP340   0.0000
    31 C3D         16.5070    39.0920    -6.4560 C.3          1 NAP340   0.0000
    32 O3D         15.3260    38.3010    -6.6910 O.3          1 NAP340   0.0000
    33 C2D         17.6070    38.1560    -5.8680 C.3          1 NAP340   0.0000
    34 O2D         16.9980    37.3200    -4.8720 O.3          1 NAP340   0.0000
    35 C1D         17.8950    37.3040    -7.0990 C.3          1 NAP340   0.0000
    36 N1N         19.1860    36.6310    -7.1810 N.ar         1 NAP340   1.0000
    37 C2N         20.2740    37.1620    -6.5840 C.ar         1 NAP340   0.0000
    38 C3N         21.4890    36.5420    -6.6720 C.ar         1 NAP340   0.0000
    39 C7N         22.7880    37.0840    -5.9950 C.2          1 NAP340   0.0000
    40 O7N         23.8310    36.4790    -5.7890 O.2          1 NAP340   0.0000
    41 N7N         22.7140    38.3620    -5.6310 N.am         1 NAP340   0.0000
    42 C4N         21.6760    35.3570    -7.4110 C.ar         1 NAP340   0.0000
    43 C5N         20.4970    34.8960    -8.0270 C.ar         1 NAP340   0.0000
    44 C6N         19.2490    35.4400    -7.9680 C.ar         1 NAP340   0.0000
    45 P2B         19.8610    50.7730    -8.6180 P.3          1 NAP340   0.0000
    46 O1X         21.0630    49.9640    -8.2670 O.co2        1 NAP340   0.0000
    47 O2X         20.2660    51.9260    -9.4740 O.co2        1 NAP340  -1.0000
    48 O3X         19.1900    51.2960    -7.3840 O.co2        1 NAP340  -1.0000
    49 H5B1        18.5108    45.8157    -7.3151 H            1 NAP340   0.0000
    50 H5B2        18.0723    44.5441    -8.2410 H            1 NAP340   0.0000
    51 H4B         18.9594    45.7030   -10.1787 H            1 NAP340   0.0000
    52 H3B         20.2070    47.3491    -8.4674 H            1 NAP340   0.0000
    53 H5          19.9149    48.7070   -10.7088 H            1 NAP340   0.0000
    54 H2B         18.4022    48.6922    -7.8866 H            1 NAP340   0.0000
    55 H1B         17.3393    48.4244   -10.5663 H            1 NAP340   0.0000
    56 H8A         16.2445    48.6094    -6.9449 H            1 NAP340   0.0000
    57 H6A1        10.6731    49.7318    -9.2649 H            1 NAP340   0.0000
    58 H6A2        11.6052    49.6627    -7.8067 H            1 NAP340   0.0000
    59 H2A         13.5209    48.7752   -12.5718 H            1 NAP340   0.0000
    60 H5D1        18.3736    40.6721    -8.8823 H            1 NAP340   0.0000
    61 H5D2        17.5285    41.4354    -7.7119 H            1 NAP340   0.0000
    62 H4D         16.3596    39.4939    -8.5009 H            1 NAP340   0.0000
    63 H3D         16.3379    39.9067    -5.9013 H            1 NAP340   0.0000
    64 H16         14.5349    38.9046    -6.7907 H            1 NAP340   0.0000
    65 H2D         18.4090    38.6503    -5.5328 H            1 NAP340   0.0000
    66 H18         17.4413    37.4761    -3.9893 H            1 NAP340   0.0000
    67 H1D         17.1572    36.6429    -7.2355 H            1 NAP340   0.0000
    68 H2N         20.1903    38.0172    -6.0724 H            1 NAP340   0.0000
    69 H7N1        23.4955    38.8020    -5.1887 H            1 NAP340   0.0000
    70 H7N2        21.8769    38.8823    -5.7998 H            1 NAP340   0.0000
    71 H4N         22.5571    34.8906    -7.4899 H            1 NAP340   0.0000
    72 H5N         20.5866    34.0654    -8.5766 H            1 NAP340   0.0000
    73 H6N         18.4552    35.0446    -8.4301 H            1 NAP340   0.0000
@<TRIPOS>BOND
     1    1    2      ar
     2    1    3      ar
     3    1    4       1
     4    1   23       1
     5    4    5       1
     6    5    6       1
     7    6    7       1
     8    6    8       1
     9    7   12       1
    10    8    9       1
    11    8   10       1
    12   10   11       1
    13   10   12       1
    14   11   45       1
    15   12   13       1
    16   13   14       1
    17   13   22       1
    18   14   15       2
    19   15   16       1
    20   16   17      ar
    21   16   22      ar
    22   17   18       1
    23   17   19      ar
    24   19   20      ar
    25   20   21      ar
    26   21   22      ar
    27   23   24       1
    28   24   25      ar
    29   24   26      ar
    30   24   27       1
    31   27   28       1
    32   28   29       1
    33   29   30       1
    34   29   31       1
    35   30   35       1
    36   31   32       1
    37   31   33       1
    38   33   34       1
    39   33   35       1
    40   35   36       1
    41   36   37      ar
    42   36   44      ar
    43   37   38      ar
    44   38   39       1
    45   38   42      ar
    46   39   40       2
    47   39   41      am
    48   42   43      ar
    49   43   44      ar
    50   45   46      ar
    51   45   47      ar
    52   45   48      ar
    53   43   72       1
    54    5   49       1
    55    5   50       1
    56    6   51       1
    57    8   52       1
    58    9   53       1
    59   10   54       1
    60   12   55       1
    61   14   56       1
    62   18   57       1
    63   18   58       1
    64   20   59       1
    65   44   73       1
    66   28   60       1
    67   28   61       1
    68   29   62       1
    69   31   63       1
    70   32   64       1
    71   33   65       1
    72   34   66       1
    73   35   67       1
    74   37   68       1
    75   41   69       1
    76   41   70       1
    77   42   71       1
@<TRIPOS>SUBSTRUCTURE
     1 NAP340      1 GROUP             4 Q     NAP     0 **** NAP Q 340
