@<TRIPOS>MOLECULE
4a8m_ATP_6_ligand
   13    12     1     0     0
SMALL
NO_CHARGES


@<TRIPOS>ATOM
     1 PG         -48.3810    -5.4010    -4.4730 P.3          1 ATP1667   0.0000
     2 O1G        -47.0560    -5.9620    -3.9790 O.co2        1 ATP1667   0.0000
     3 O2G        -48.0470    -4.8070    -5.8650 O.co2        1 ATP1667  -1.0000
     4 O3G        -48.9960    -4.2410    -3.4820 O.co2        1 ATP1667  -1.0000
     5 PB         -49.0370    -8.0780    -5.2290 P.3          1 ATP1667   0.0000
     6 O1B        -49.0040    -7.9530    -6.7730 O.co2        1 ATP1667   0.0000
     7 O2B        -47.6990    -8.6810    -4.7770 O.co2        1 ATP1667  -1.0000
     8 O3B        -49.3120    -6.6740    -4.5320 O.3          1 ATP1667   0.0000
     9 PA         -51.8110    -8.6920    -4.9880 P.3          1 ATP1667   0.0000
    10 O1A        -52.2650    -7.8170    -3.7970 O.co2        1 ATP1667   0.0000
    11 O2A        -52.0460    -7.9720    -6.3390 O.co2        1 ATP1667  -1.0000
    12 O3A        -50.2510    -9.0060    -4.8430 O.3          1 ATP1667   0.0000
    13 O5'        -52.6310    -9.9950    -5.0080 O.co2        1 ATP1667  -1.0000
@<TRIPOS>BOND
     1    1    2      ar
     2    1    3      ar
     3    1    4      ar
     4    1    8       1
     5    5    6      ar
     6    5    7      ar
     7    5    8       1
     8    5   12       1
     9    9   10      ar
    10    9   11      ar
    11    9   12       1
    12    9   13      ar
@<TRIPOS>SUBSTRUCTURE
     1 ATP1667     1 GROUP             4 R     ATP     0 **** ATP R1667
