@<TRIPOS>MOLECULE
2bm9_SAM_4_ligand
   50    52     1     0     0
SMALL
NO_CHARGES


@<TRIPOS>ATOM
     1 N           44.2200    59.0040    73.4160 N.4          1 SAM301   1.0000
     2 CA          44.0120    60.2820    72.7480 C.3          1 SAM301   0.0000
     3 C           42.7160    60.9040    73.2520 C.2          1 SAM301   0.0000
     4 O           41.6580    60.2800    73.1670 O.co2        1 SAM301   0.0000
     5 OXT         42.7210    62.0270    73.7580 O.co2        1 SAM301  -1.0000
     6 CB          43.9890    60.1120    71.2260 C.3          1 SAM301   0.0000
     7 CG          45.3290    60.3820    70.5360 C.3          1 SAM301   0.0000
     8 SD          45.1630    60.8280    68.7870 S.3          1 SAM301   1.0000
     9 CE          44.1200    59.4790    68.1810 C.3          1 SAM301   0.0000
    10 C5'         46.7520    60.3510    68.0660 C.3          1 SAM301   0.0000
    11 C4'         47.9570    60.9290    68.7940 C.3          1 SAM301   0.0000
    12 O4'         49.0990    60.1630    68.4760 O.3          1 SAM301   0.0000
    13 C3'         48.2610    62.3670    68.4060 C.3          1 SAM301   0.0000
    14 O3'         48.2240    63.1900    69.5460 O.3          1 SAM301   0.0000
    15 C2'         49.6530    62.3340    67.8140 C.3          1 SAM301   0.0000
    16 O2'         50.4400    63.4000    68.2830 O.3          1 SAM301   0.0000
    17 C1'         50.2130    61.0050    68.2870 C.3          1 SAM301   0.0000
    18 N9          51.1590    60.3920    67.3380 N.pl3        1 SAM301   0.0000
    19 C8          51.0060    60.2320    65.9870 C.2          1 SAM301   0.0000
    20 N7          52.1100    59.6150    65.5060 N.2          1 SAM301   0.0000
    21 C5          52.9570    59.3760    66.5290 C.ar         1 SAM301   0.0000
    22 C6          54.2100    58.7800    66.5970 C.ar         1 SAM301   0.0000
    23 N6          54.7890    58.3150    65.4970 N.pl3        1 SAM301   0.0000
    24 N1          54.8500    58.6770    67.8160 N.ar         1 SAM301   0.0000
    25 C2          54.2510    59.1610    68.9610 C.ar         1 SAM301   0.0000
    26 N3          53.0050    59.7480    68.8820 N.ar         1 SAM301   0.0000
    27 C4          52.3690    59.8570    67.6880 C.ar         1 SAM301   0.0000
    28 H1          45.0699    58.5912    73.0886 H            1 SAM301   0.0000
    29 H2          44.2790    59.1498    74.4036 H            1 SAM301   0.0000
    30 HA          44.7687    60.8906    72.9869 H            1 SAM301   0.0000
    31 HB1         43.3117    60.7451    70.8513 H            1 SAM301   0.0000
    32 HB2         43.7160    59.1721    71.0209 H            1 SAM301   0.0000
    33 HG1         45.8904    59.5570    70.6006 H            1 SAM301   0.0000
    34 HG2         45.7849    61.1336    71.0126 H            1 SAM301   0.0000
    35 HE1         43.9465    59.6048    67.2042 H            1 SAM301   0.0000
    36 HE2         44.5856    58.6062    68.3271 H            1 SAM301   0.0000
    37 HE3         43.2515    59.4806    68.6767 H            1 SAM301   0.0000
    38 H5'1        46.7753    60.6675    67.1177 H            1 SAM301   0.0000
    39 H5'2        46.8204    59.3535    68.0863 H            1 SAM301   0.0000
    40 H4'         47.7965    60.8831    69.7800 H            1 SAM301   0.0000
    41 H3'         47.6028    62.6885    67.7253 H            1 SAM301   0.0000
    42 H15         48.9062    62.8758    70.2062 H            1 SAM301   0.0000
    43 H2'         49.6046    62.3531    66.8154 H            1 SAM301   0.0000
    44 H17         50.5189    63.3434    69.2783 H            1 SAM301   0.0000
    45 H1'         50.6728    61.1390    69.1648 H            1 SAM301   0.0000
    46 H19         50.2146    60.5213    65.4484 H            1 SAM301   0.0000
    47 H20         55.6910    57.8866    65.5496 H            1 SAM301   0.0000
    48 H21         54.3232    58.3931    64.6156 H            1 SAM301   0.0000
    49 H22         54.7172    59.0867    69.8426 H            1 SAM301   0.0000
    50 H23         43.4538    58.3939    73.2143 H            1 SAM301   0.0000
@<TRIPOS>BOND
     1    1    2       1
     2    2    3       1
     3    2    6       1
     4    3    4      ar
     5    3    5      ar
     6    6    7       1
     7    7    8       1
     8    8    9       1
     9    8   10       1
    10   10   11       1
    11   11   12       1
    12   11   13       1
    13   12   17       1
    14   13   14       1
    15   13   15       1
    16   15   16       1
    17   15   17       1
    18   17   18       1
    19   18   19       1
    20   18   27       1
    21   19   20       2
    22   20   21       1
    23   21   22      ar
    24   21   27      ar
    25   22   23       1
    26   22   24      ar
    27   24   25      ar
    28   25   26      ar
    29   26   27      ar
    30    1   28       1
    31    1   29       1
    32    2   30       1
    33    1   50       1
    34    6   31       1
    35    6   32       1
    36    7   33       1
    37    7   34       1
    38    9   35       1
    39    9   36       1
    40    9   37       1
    41   10   38       1
    42   10   39       1
    43   11   40       1
    44   13   41       1
    45   14   42       1
    46   15   43       1
    47   16   44       1
    48   17   45       1
    49   19   46       1
    50   23   47       1
    51   23   48       1
    52   25   49       1
@<TRIPOS>SUBSTRUCTURE
     1 SAM301      1 GROUP             4 D     SAM     0 **** SAM D 301
