@<TRIPOS>MOLECULE
1x01_ATP_2_ligand
   43    45     1     0     0
SMALL
NO_CHARGES


@<TRIPOS>ATOM
     1 PG         -33.8280    35.3960   -31.0430 P.3          1 ATP1002   0.0000
     2 O1G        -34.7490    36.5920   -31.1530 O.co2        1 ATP1002   0.0000
     3 O2G        -33.2970    35.3490   -29.6290 O.co2        1 ATP1002  -1.0000
     4 O3G        -32.6860    35.5140   -32.0320 O.co2        1 ATP1002  -1.0000
     5 PB         -35.1130    33.3580   -32.6550 P.3          1 ATP1002   0.0000
     6 O1B        -34.1010    33.5040   -33.7420 O.co2        1 ATP1002   0.0000
     7 O2B        -36.3460    34.0450   -33.0820 O.co2        1 ATP1002  -1.0000
     8 O3B        -34.6450    33.9840   -31.2120 O.3          1 ATP1002   0.0000
     9 PA         -34.5260    30.5760   -31.7410 P.3          1 ATP1002   0.0000
    10 O1A        -35.0760    29.8400   -30.5670 O.co2        1 ATP1002   0.0000
    11 O2A        -34.3320    29.5880   -32.8300 O.co2        1 ATP1002  -1.0000
    12 O3A        -35.4810    31.8300   -32.2750 O.3          1 ATP1002   0.0000
    13 O5'        -33.1180    31.1980   -31.2330 O.3          1 ATP1002   0.0000
    14 C5'        -32.1950    32.0740   -31.9990 C.3          1 ATP1002   0.0000
    15 C4'        -31.4580    31.6500   -33.2810 C.3          1 ATP1002   0.0000
    16 O4'        -30.0770    31.2740   -33.0180 O.3          1 ATP1002   0.0000
    17 C3'        -31.9830    30.5270   -34.1770 C.3          1 ATP1002   0.0000
    18 O3'        -33.1190    30.9970   -34.9370 O.3          1 ATP1002   0.0000
    19 C2'        -30.7440    30.1960   -35.0230 C.3          1 ATP1002   0.0000
    20 O2'        -30.6030    31.0200   -36.1940 O.3          1 ATP1002   0.0000
    21 C1'        -29.5820    30.4450   -34.0560 C.3          1 ATP1002   0.0000
    22 N9         -28.8970    29.2480   -33.4680 N.pl3        1 ATP1002   0.0000
    23 C8         -29.1530    27.8850   -33.6360 C.2          1 ATP1002   0.0000
    24 N7         -28.3340    27.0950   -32.9610 N.2          1 ATP1002   0.0000
    25 C5         -27.4770    27.9710   -32.3120 C.ar         1 ATP1002   0.0000
    26 C6         -26.3770    27.7680   -31.4200 C.ar         1 ATP1002   0.0000
    27 N6         -25.9470    26.5540   -31.0600 N.pl3        1 ATP1002   0.0000
    28 N1         -25.7240    28.8810   -30.9350 N.ar         1 ATP1002   0.0000
    29 C2         -26.1580    30.1130   -31.3030 C.ar         1 ATP1002   0.0000
    30 N3         -27.1810    30.4240   -32.1310 N.ar         1 ATP1002   0.0000
    31 C4         -27.8180    29.3040   -32.5990 C.ar         1 ATP1002   0.0000
    32 H5'1       -31.4799    32.3417   -31.3533 H            1 ATP1002   0.0000
    33 H5'2       -32.7339    32.8776   -32.2515 H            1 ATP1002   0.0000
    34 H4'        -31.4164    32.4660   -33.8576 H            1 ATP1002   0.0000
    35 H3'        -32.2427    29.7365   -33.6223 H            1 ATP1002   0.0000
    36 H5         -33.6033    31.6980   -34.4135 H            1 ATP1002   0.0000
    37 H2'        -30.7630    29.2319   -35.2880 H            1 ATP1002   0.0000
    38 H7         -29.7800    30.7505   -36.6941 H            1 ATP1002   0.0000
    39 H1'        -28.8901    30.9700   -34.5515 H            1 ATP1002   0.0000
    40 H9         -29.8902    27.5371   -34.2153 H            1 ATP1002   0.0000
    41 H10        -25.1732    26.4632   -30.4331 H            1 ATP1002   0.0000
    42 H11        -26.3992    25.7370   -31.4177 H            1 ATP1002   0.0000
    43 H12        -25.6593    30.8873   -30.9134 H            1 ATP1002   0.0000
@<TRIPOS>BOND
     1    1    2      ar
     2    1    3      ar
     3    1    4      ar
     4    1    8       1
     5    5    6      ar
     6    5    7      ar
     7    5    8       1
     8    5   12       1
     9    9   10      ar
    10    9   11      ar
    11    9   12       1
    12    9   13       1
    13   13   14       1
    14   14   15       1
    15   15   16       1
    16   15   17       1
    17   16   21       1
    18   17   18       1
    19   17   19       1
    20   19   20       1
    21   19   21       1
    22   21   22       1
    23   22   23       1
    24   22   31       1
    25   23   24       2
    26   24   25       1
    27   25   26      ar
    28   25   31      ar
    29   26   27       1
    30   26   28      ar
    31   28   29      ar
    32   29   30      ar
    33   30   31      ar
    34   29   43       1
    35   27   42       1
    36   27   41       1
    37   23   40       1
    38   14   32       1
    39   14   33       1
    40   15   34       1
    41   17   35       1
    42   18   36       1
    43   19   37       1
    44   20   38       1
    45   21   39       1
@<TRIPOS>SUBSTRUCTURE
     1 ATP1002     1 GROUP             4 B     ATP     0 **** ATP B1002
