@<TRIPOS>MOLECULE
1i12_ACO_3_ligand
   85    87     1     0     0
SMALL
NO_CHARGES


@<TRIPOS>ATOM
     1 N1A         83.1340     8.2940    21.3020 N.ar         1 ACO1201   0.0000
     2 C2A         84.2580     8.5050    20.6580 C.ar         1 ACO1201   0.0000
     3 N3A         84.8070     9.6980    20.3340 N.ar         1 ACO1201   0.0000
     4 C4A         84.0600    10.7770    20.7330 C.ar         1 ACO1201   0.0000
     5 C5A         82.8880    10.6500    21.4500 C.ar         1 ACO1201   0.0000
     6 C6A         82.3790     9.3340    21.7200 C.ar         1 ACO1201   0.0000
     7 N6A         81.2300     9.1220    22.3620 N.pl3        1 ACO1201   0.0000
     8 N7A         82.3700    11.9320    21.7210 N.2          1 ACO1201   0.0000
     9 C8A         83.2470    12.7320    21.1870 C.2          1 ACO1201   0.0000
    10 N9A         84.3050    12.1160    20.5680 N.pl3        1 ACO1201   0.0000
    11 C1B         85.4070    12.6710    19.8930 C.3          1 ACO1201   0.0000
    12 C2B         85.0020    13.5960    18.7400 C.3          1 ACO1201   0.0000
    13 O2B         84.7520    12.8900    17.5040 O.3          1 ACO1201   0.0000
    14 C3B         86.1780    14.5610    18.6690 C.3          1 ACO1201   0.0000
    15 O3B         87.2280    13.9090    17.9620 O.3          1 ACO1201   0.0000
    16 P3B         88.3080    14.7420    17.1010 P.3          1 ACO1201   0.0000
    17 O7A         87.5840    15.4580    16.0830 O.co2        1 ACO1201   0.0000
    18 O8A         89.1710    13.6390    16.5730 O.co2        1 ACO1201  -1.0000
    19 O9A         88.9910    15.6860    18.0970 O.co2        1 ACO1201  -1.0000
    20 C4B         86.5940    14.7520    20.1370 C.3          1 ACO1201   0.0000
    21 O4B         86.1600    13.5100    20.7480 O.3          1 ACO1201   0.0000
    22 C5B         85.9170    15.9840    20.7420 C.3          1 ACO1201   0.0000
    23 O5B         84.5200    15.8840    20.5890 O.3          1 ACO1201   0.0000
    24 P1A         83.5800    17.1310    20.9460 P.3          1 ACO1201   0.0000
    25 O1A         82.8040    17.4600    19.7060 O.co2        1 ACO1201   0.0000
    26 O2A         84.3430    18.1900    21.5680 O.co2        1 ACO1201  -1.0000
    27 O3A         82.5600    16.3960    21.9690 O.3          1 ACO1201   0.0000
    28 P2A         81.3090    16.9870    22.7020 P.3          1 ACO1201   0.0000
    29 O4A         80.2250    16.2000    22.2680 O.co2        1 ACO1201   0.0000
    30 O5A         81.2880    18.4990    22.4590 O.co2        1 ACO1201  -1.0000
    31 O6A         81.5740    16.7550    24.2450 O.3          1 ACO1201   0.0000
    32 CBP         80.7420    15.3030    25.9990 C.3          1 ACO1201   0.0000
    33 CCP         81.6630    15.3910    24.8220 C.3          1 ACO1201   0.0000
    34 CDP         80.8410    13.8630    26.5180 C.3          1 ACO1201   0.0000
    35 CEP         81.2000    16.2640    27.1030 C.3          1 ACO1201   0.0000
    36 CAP         79.2920    15.6440    25.5590 C.3          1 ACO1201   0.0000
    37 OAP         78.8620    14.8120    24.4880 O.3          1 ACO1201   0.0000
    38 C9P         78.2780    15.5420    26.7040 C.2          1 ACO1201   0.0000
    39 O9P         78.0140    16.5340    27.4270 O.2          1 ACO1201   0.0000
    40 N8P         77.6940    14.3710    26.9160 N.am         1 ACO1201   0.0000
    41 C7P         76.6970    14.1250    27.9460 C.3          1 ACO1201   0.0000
    42 C6P         77.1420    14.4200    29.3850 C.3          1 ACO1201   0.0000
    43 C5P         78.4340    13.7460    29.7360 C.2          1 ACO1201   0.0000
    44 O5P         78.5740    12.5220    29.5510 O.2          1 ACO1201   0.0000
    45 N4P         79.4420    14.4400    30.2030 N.am         1 ACO1201   0.0000
    46 C3P         80.7890    14.0390    30.6520 C.3          1 ACO1201   0.0000
    47 C2P         80.6420    13.6710    32.1520 C.3          1 ACO1201   0.0000
    48 S1P         82.3760    13.2030    32.7220 S.3          1 ACO1201   0.0000
    49 C           82.6880    14.3200    33.6870 C.2          1 ACO1201   0.0000
    50 O           81.9130    15.2650    34.1580 O.2          1 ACO1201   0.0000
    51 CH3         84.0980    14.5800    34.4850 C.3          1 ACO1201   0.0000
    52 H2A         84.7661     7.6916    20.3748 H            1 ACO1201   0.0000
    53 H6A1        80.6776     9.8975    22.6678 H            1 ACO1201   0.0000
    54 H6A2        80.9205     8.1875    22.5378 H            1 ACO1201   0.0000
    55 H8A         83.1558    13.7271    21.2253 H            1 ACO1201   0.0000
    56 H1B         85.9905    11.9374    19.5447 H            1 ACO1201   0.0000
    57 H2B         84.1793    14.1016    18.9999 H            1 ACO1201   0.0000
    58 H7          85.5800    12.4040    17.2244 H            1 ACO1201   0.0000
    59 H3B         85.9226    15.4271    18.2394 H            1 ACO1201   0.0000
    60 H4B         87.5880    14.8387    20.2038 H            1 ACO1201   0.0000
    61 H5B1        86.2442    16.8055    20.2751 H            1 ACO1201   0.0000
    62 H5B2        86.1412    16.0419    21.7148 H            1 ACO1201   0.0000
    63 HCP1        82.6018    15.2111    25.1158 H            1 ACO1201   0.0000
    64 HCP2        81.3942    14.7170    24.1339 H            1 ACO1201   0.0000
    65 HDP1        80.2402    13.7520    27.3097 H            1 ACO1201   0.0000
    66 HDP2        80.5626    13.2288    25.7967 H            1 ACO1201   0.0000
    67 HDP3        81.7848    13.6694    26.7860 H            1 ACO1201   0.0000
    68 HEP1        80.5779    16.1964    27.8830 H            1 ACO1201   0.0000
    69 HEP2        82.1258    16.0215    27.3930 H            1 ACO1201   0.0000
    70 HEP3        81.1950    17.2007    26.7528 H            1 ACO1201   0.0000
    71 HAP         79.2874    16.5888    25.2314 H            1 ACO1201   0.0000
    72 H21         79.0967    15.2426    23.6165 H            1 ACO1201   0.0000
    73 H8P         77.9565    13.6056    26.3285 H            1 ACO1201   0.0000
    74 H7P1        76.4352    13.1611    27.8966 H            1 ACO1201   0.0000
    75 H7P2        75.9014    14.6971    27.7468 H            1 ACO1201   0.0000
    76 H6P1        76.4323    14.0993    30.0123 H            1 ACO1201   0.0000
    77 H6P2        77.2571    15.4079    29.4889 H            1 ACO1201   0.0000
    78 H4P         79.2662    15.4223    30.2670 H            1 ACO1201   0.0000
    79 H3P1        81.4330    14.7959    30.5406 H            1 ACO1201   0.0000
    80 H3P2        81.1095    13.2490    30.1294 H            1 ACO1201   0.0000
    81 H2P1        80.0164    12.8989    32.2635 H            1 ACO1201   0.0000
    82 H2P2        80.3015    14.4538    32.6729 H            1 ACO1201   0.0000
    83 HH31        84.0123    15.3965    35.0559 H            1 ACO1201   0.0000
    84 HH32        84.3050    13.7900    35.0621 H            1 ACO1201   0.0000
    85 HH33        84.8361    14.7119    33.8233 H            1 ACO1201   0.0000
@<TRIPOS>BOND
     1    1    2      ar
     2    1    6      ar
     3    2    3      ar
     4    3    4      ar
     5    4    5      ar
     6    4   10       1
     7    5    6      ar
     8    5    8       1
     9    6    7       1
    10    8    9       2
    11    9   10       1
    12   10   11       1
    13   11   12       1
    14   11   21       1
    15   12   13       1
    16   12   14       1
    17   14   15       1
    18   14   20       1
    19   15   16       1
    20   16   17      ar
    21   16   18      ar
    22   16   19      ar
    23   20   21       1
    24   20   22       1
    25   22   23       1
    26   23   24       1
    27   24   25      ar
    28   24   26      ar
    29   24   27       1
    30   27   28       1
    31   28   29      ar
    32   28   30      ar
    33   28   31       1
    34   31   33       1
    35   32   33       1
    36   32   34       1
    37   32   35       1
    38   32   36       1
    39   36   37       1
    40   36   38       1
    41   38   39       2
    42   38   40      am
    43   40   41       1
    44   41   42       1
    45   42   43       1
    46   43   44       2
    47   43   45      am
    48   45   46       1
    49   46   47       1
    50   47   48       1
    51   48   49       1
    52   49   50       2
    53   49   51       1
    54    2   52       1
    55    7   53       1
    56    7   54       1
    57    9   55       1
    58   11   56       1
    59   12   57       1
    60   13   58       1
    61   14   59       1
    62   51   85       1
    63   51   84       1
    64   20   60       1
    65   22   61       1
    66   22   62       1
    67   51   83       1
    68   47   82       1
    69   33   63       1
    70   33   64       1
    71   34   65       1
    72   34   66       1
    73   34   67       1
    74   35   68       1
    75   35   69       1
    76   35   70       1
    77   36   71       1
    78   37   72       1
    79   40   73       1
    80   41   74       1
    81   41   75       1
    82   42   76       1
    83   42   77       1
    84   45   78       1
    85   46   79       1
    86   46   80       1
    87   47   81       1
@<TRIPOS>SUBSTRUCTURE
     1 ACO1201     1 GROUP             4 A     ACO     0 **** ACO A1201
