@<TRIPOS>MOLECULE
5aga_ANP_1_ligand
   45    47     1     0     0
SMALL
NO_CHARGES


@<TRIPOS>ATOM
     1 PG          42.1250    48.0640    35.5580 P.3          1 ANP1892   0.0000
     2 O1G         43.6180    47.9390    35.2170 O.co2        1 ANP1892   0.0000
     3 O2G         41.5340    49.2770    34.8170 O.co2        1 ANP1892  -1.0000
     4 O3G         41.4040    46.8140    35.1210 O.co2        1 ANP1892  -1.0000
     5 PB          43.1330    48.2080    38.3130 P.3          1 ANP1892   0.0000
     6 O1B         44.4310    48.5770    37.6990 O.co2        1 ANP1892   0.0000
     7 O2B         42.8110    49.1720    39.4030 O.co2        1 ANP1892  -1.0000
     8 N3B         41.9040    48.2920    37.1910 N.3          1 ANP1892   0.0000
     9 PA          43.1850    46.3140    40.4500 P.3          1 ANP1892   0.0000
    10 O1A         44.5770    46.1810    40.9820 O.co2        1 ANP1892   0.0000
    11 O2A         42.4110    47.3220    41.2650 O.co2        1 ANP1892  -1.0000
    12 O3A         43.2220    46.7310    38.8920 O.3          1 ANP1892   0.0000
    13 O5'         42.4620    44.9220    40.5780 O.3          1 ANP1892   0.0000
    14 C5'         41.6320    44.7030    41.6970 C.3          1 ANP1892   0.0000
    15 C4'         42.3740    43.8110    42.7330 C.3          1 ANP1892   0.0000
    16 O4'         43.6410    44.0830    42.7480 O.3          1 ANP1892   0.0000
    17 C3'         41.9200    44.1480    44.1670 C.3          1 ANP1892   0.0000
    18 O3'         40.7770    43.5230    44.4780 O.3          1 ANP1892   0.0000
    19 C2'         43.1120    43.6010    44.9820 C.3          1 ANP1892   0.0000
    20 O2'         42.9780    42.1080    45.1320 O.3          1 ANP1892   0.0000
    21 C1'         44.1450    43.8800    44.2670 C.3          1 ANP1892   0.0000
    22 N9          44.7670    45.1150    44.7750 N.pl3        1 ANP1892   0.0000
    23 C8          44.8280    46.3010    44.1330 C.2          1 ANP1892   0.0000
    24 N7          45.4700    47.1840    44.9320 N.2          1 ANP1892   0.0000
    25 C5          45.8120    46.5400    46.0860 C.ar         1 ANP1892   0.0000
    26 C6          46.4790    46.9600    47.2410 C.ar         1 ANP1892   0.0000
    27 N6          47.0420    48.2270    47.6170 N.pl3        1 ANP1892   0.0000
    28 N1          46.6900    46.0950    48.2590 N.ar         1 ANP1892   1.0000
    29 C2          46.2510    44.8040    48.1620 C.ar         1 ANP1892   0.0000
    30 N3          45.5970    44.3880    47.0330 N.ar         1 ANP1892   0.0000
    31 C4          45.3810    45.2650    45.9960 C.ar         1 ANP1892   0.0000
    32 H3B         41.2314    47.6077    37.4726 H            1 ANP1892   0.0000
    33 H5'1        40.7930    44.2445    41.4040 H            1 ANP1892   0.0000
    34 H5'2        41.4027    45.5807    42.1177 H            1 ANP1892   0.0000
    35 H4'         42.2242    42.8423    42.5348 H            1 ANP1892   0.0000
    36 H3'         41.8295    45.1365    44.2886 H            1 ANP1892   0.0000
    37 H6          40.9836    42.6326    44.8836 H            1 ANP1892   0.0000
    38 H2'         43.1666    44.0456    45.8760 H            1 ANP1892   0.0000
    39 H8          43.4365    41.6538    44.3681 H            1 ANP1892   0.0000
    40 H1'         44.8012    43.1266    44.3095 H            1 ANP1892   0.0000
    41 H10         44.4614    46.4938    43.2228 H            1 ANP1892   0.0000
    42 H11         47.4884    48.3318    48.5057 H            1 ANP1892   0.0000
    43 H12         46.9875    49.0042    46.9901 H            1 ANP1892   0.0000
    44 H13         46.4072    44.1642    48.9145 H            1 ANP1892   0.0000
    45 H14         47.1674    46.3999    49.0831 H            1 ANP1892   0.0000
@<TRIPOS>BOND
     1    1    2      ar
     2    1    3      ar
     3    1    4      ar
     4    1    8       1
     5    5    6      ar
     6    5    7      ar
     7    5    8       1
     8    5   12       1
     9    9   10      ar
    10    9   11      ar
    11    9   12       1
    12    9   13       1
    13   13   14       1
    14   14   15       1
    15   15   16       1
    16   15   17       1
    17   16   21       1
    18   17   18       1
    19   17   19       1
    20   19   20       1
    21   19   21       1
    22   21   22       1
    23   22   23       1
    24   22   31       1
    25   23   24       2
    26   24   25       1
    27   25   26      ar
    28   25   31      ar
    29   26   27       1
    30   26   28      ar
    31   28   29      ar
    32   29   30      ar
    33   30   31      ar
    34   29   44       1
    35   27   43       1
    36   27   42       1
    37    8   32       1
    38   23   41       1
    39   14   33       1
    40   14   34       1
    41   15   35       1
    42   17   36       1
    43   18   37       1
    44   19   38       1
    45   20   39       1
    46   21   40       1
    47   28   45       1
@<TRIPOS>SUBSTRUCTURE
     1 ANP1892     1 GROUP             4 A     ANP     0 **** ANP A1892
