@<TRIPOS>MOLECULE
2nmv_ADP_1_ligand
   39    41     1     0     0
SMALL
NO_CHARGES


@<TRIPOS>ATOM
     1 PB         -15.5890    18.1290   -16.3710 P.3          1 ADP662   0.0000
     2 O1B        -16.6910    17.1010   -16.6370 O.co2        1 ADP662   0.0000
     3 O2B        -14.1630    17.6050   -16.5590 O.co2        1 ADP662  -1.0000
     4 O3B        -15.8480    18.9430   -15.1180 O.co2        1 ADP662  -1.0000
     5 PA         -15.9170    18.9830   -19.0970 P.3          1 ADP662   0.0000
     6 O1A        -14.5270    18.6060   -19.6100 O.co2        1 ADP662   0.0000
     7 O2A        -17.0840    18.0310   -19.3210 O.co2        1 ADP662  -1.0000
     8 O3A        -15.7700    19.2760   -17.5050 O.3          1 ADP662   0.0000
     9 O5'        -16.3280    20.4670   -19.6450 O.3          1 ADP662   0.0000
    10 C5'        -17.6490    20.9040   -20.0150 C.3          1 ADP662   0.0000
    11 C4'        -17.7140    21.0910   -21.5390 C.3          1 ADP662   0.0000
    12 O4'        -17.5090    22.4540   -21.9650 O.3          1 ADP662   0.0000
    13 C3'        -16.5960    20.2830   -22.1710 C.3          1 ADP662   0.0000
    14 O3'        -17.0740    19.6860   -23.3860 O.3          1 ADP662   0.0000
    15 C2'        -15.4780    21.3020   -22.3800 C.3          1 ADP662   0.0000
    16 O2'        -14.6030    20.9310   -23.4500 O.3          1 ADP662   0.0000
    17 C1'        -16.1970    22.6490   -22.5630 C.3          1 ADP662   0.0000
    18 N9         -15.4110    23.7920   -21.9580 N.pl3        1 ADP662   0.0000
    19 C8         -14.5470    23.6950   -20.9110 C.2          1 ADP662   0.0000
    20 N7         -13.9720    24.8870   -20.5650 N.2          1 ADP662   0.0000
    21 C5         -14.4610    25.8120   -21.4100 C.ar         1 ADP662   0.0000
    22 C6         -14.2710    27.2820   -21.6090 C.ar         1 ADP662   0.0000
    23 N6         -13.4330    28.0150   -20.8310 N.pl3        1 ADP662   0.0000
    24 N1         -14.9760    27.8730   -22.6060 N.ar         1 ADP662   0.0000
    25 C2         -15.8240    27.1780   -23.3920 C.ar         1 ADP662   0.0000
    26 N3         -16.0360    25.8450   -23.2740 N.ar         1 ADP662   0.0000
    27 C4         -15.4040    25.0970   -22.3210 C.ar         1 ADP662   0.0000
    28 H5'1       -17.8524    21.7725   -19.5629 H            1 ADP662   0.0000
    29 H5'2       -18.3191    20.2170   -19.7339 H            1 ADP662   0.0000
    30 H4'        -18.5959    20.7638   -21.8785 H            1 ADP662   0.0000
    31 H3'        -16.2924    19.5703   -21.5387 H            1 ADP662   0.0000
    32 H5         -16.3402    19.1522   -23.8063 H            1 ADP662   0.0000
    33 H2'        -14.9387    21.3489   -21.5392 H            1 ADP662   0.0000
    34 H7         -14.2290    21.7550   -23.8757 H            1 ADP662   0.0000
    35 H1'        -16.3124    22.8211   -23.5413 H            1 ADP662   0.0000
    36 H9         -14.3513    22.8349   -20.4399 H            1 ADP662   0.0000
    37 H10        -13.3308    28.9965   -20.9929 H            1 ADP662   0.0000
    38 H11        -12.9183    27.5732   -20.0963 H            1 ADP662   0.0000
    39 H12        -16.3241    27.6745   -24.1015 H            1 ADP662   0.0000
@<TRIPOS>BOND
     1    1    2      ar
     2    1    3      ar
     3    1    4      ar
     4    1    8       1
     5    5    6      ar
     6    5    7      ar
     7    5    8       1
     8    5    9       1
     9    9   10       1
    10   10   11       1
    11   11   12       1
    12   11   13       1
    13   12   17       1
    14   13   14       1
    15   13   15       1
    16   15   16       1
    17   15   17       1
    18   17   18       1
    19   18   19       1
    20   18   27       1
    21   19   20       2
    22   20   21       1
    23   21   22      ar
    24   21   27      ar
    25   22   23       1
    26   22   24      ar
    27   24   25      ar
    28   25   26      ar
    29   26   27      ar
    30   25   39       1
    31   23   38       1
    32   23   37       1
    33   10   28       1
    34   10   29       1
    35   11   30       1
    36   13   31       1
    37   14   32       1
    38   15   33       1
    39   16   34       1
    40   17   35       1
    41   19   36       1
@<TRIPOS>SUBSTRUCTURE
     1 ADP662      1 GROUP             4 A     ADP     0 **** ADP A 662
