@<TRIPOS>MOLECULE
3iqz_H4M_3_ligand
   82    86     1     0     0
SMALL
NO_CHARGES


@<TRIPOS>ATOM
     1 N1          -5.4880    16.3950     1.9850 N.2          1 H4M284   0.0000
     2 C2          -6.0060    17.0540     3.0390 C.2          1 H4M284   0.0000
     3 NA2         -7.0190    16.5140     3.7700 N.pl3        1 H4M284   0.0000
     4 N3          -5.5440    18.2450     3.4290 N.pl3        1 H4M284   0.0000
     5 C4          -4.5490    18.8390     2.7540 C.2          1 H4M284   0.0000
     6 OH4         -4.0880    19.9470     3.1160 O.3          1 H4M284   0.0000
     7 C4A         -4.0290    18.2170     1.6500 C.2          1 H4M284   0.0000
     8 N5          -3.0170    18.8350     0.9160 N.pl3        1 H4M284   0.0000
     9 C6          -2.9930    18.5890    -0.5000 C.3          1 H4M284   0.0000
    10 C7          -2.9530    17.0590    -0.6000 C.3          1 H4M284   0.0000
    11 C7M         -3.0100    16.5530    -2.0300 C.3          1 H4M284   0.0000
    12 N8          -4.0040    16.3970     0.1610 N.2          1 H4M284   0.0000
    13 C8A         -4.5250    16.9980     1.2480 C.2          1 H4M284   0.0000
    14 C9          -1.6960    19.3130    -0.8870 C.3          1 H4M284   0.0000
    15 C9M         -1.8800    20.0880    -2.2050 C.3          1 H4M284   0.0000
    16 C10         -2.5950    20.2190     1.1430 C.3          1 H4M284   0.0000
    17 N10         -1.5800    20.3580     0.1050 N.pl3        1 H4M284   0.0000
    18 C11          1.6530    23.0990    -0.0810 C.ar         1 H4M284   0.0000
    19 C12          1.5880    21.9940    -0.9430 C.ar         1 H4M284   0.0000
    20 C13          0.5200    21.0940    -0.8610 C.ar         1 H4M284   0.0000
    21 C14         -0.5060    21.2710     0.0700 C.ar         1 H4M284   0.0000
    22 C15         -0.4690    22.3690     0.9130 C.ar         1 H4M284   0.0000
    23 C16          0.6200    23.2600     0.8450 C.ar         1 H4M284   0.0000
    24 CX1          2.8000    24.1230    -0.1330 C.3          1 H4M284   0.0000
    25 CX2          4.1540    23.6180     0.4420 C.3          1 H4M284   0.0000
    26 CX3          5.2870    24.6580     0.3380 C.3          1 H4M284   0.0000
    27 CX4          6.6610    24.0310     0.5390 C.3          1 H4M284   0.0000
    28 CX5          7.0210    23.1440    -0.6210 C.3          1 H4M284   0.0000
    29 OX2          4.0130    23.2110     1.8280 O.3          1 H4M284   0.0000
    30 OX3          5.3110    25.3030    -0.9440 O.3          1 H4M284   0.0000
    31 OX4          7.6260    25.0660     0.4630 O.3          1 H4M284   0.0000
    32 OX5          8.2810    22.5510    -0.3530 O.3          1 H4M284   0.0000
    33 O5J         12.8090    22.3020    -2.1240 O.3          1 H4M284   0.0000
    34 C5J         12.6940    22.4790    -0.7240 C.3          1 H4M284   0.0000
    35 C4J         11.2530    22.3150    -0.2830 C.3          1 H4M284   0.0000
    36 O4J         10.3880    23.2840    -0.8850 O.3          1 H4M284   0.0000
    37 C3J         10.7370    20.9390    -0.6430 C.3          1 H4M284   0.0000
    38 O3J         10.2060    20.3430     0.5600 O.3          1 H4M284   0.0000
    39 C2J          9.6500    21.2120    -1.6710 C.3          1 H4M284   0.0000
    40 O2J          8.5120    20.3800    -1.4560 O.3          1 H4M284   0.0000
    41 C1J          9.2270    22.6320    -1.4010 C.3          1 H4M284   0.0000
    42 PA          14.0460    22.9640    -2.9760 P.3          1 H4M284   0.0000
    43 O1A         15.1250    21.8950    -2.8970 O.co2        1 H4M284   0.0000
    44 O2A         13.4900    23.1530    -4.3890 O.co2        1 H4M284  -1.0000
    45 O3A         14.3880    24.2690    -2.2760 O.co2        1 H4M284  -1.0000
    46 HA21        -7.3943    17.0143     4.5503 H            1 H4M284   0.0000
    47 HA22        -7.3880    15.6169     3.5268 H            1 H4M284   0.0000
    48 H3          -3.7913    18.9751    -0.9622 H            1 H4M284   0.0000
    49 H4          -2.0789    16.7611    -0.2164 H            1 H4M284   0.0000
    50 H7M1        -2.9806    15.5534    -2.0313 H            1 H4M284   0.0000
    51 H7M2        -3.8586    16.8621    -2.4594 H            1 H4M284   0.0000
    52 H7M3        -2.2283    16.9101    -2.5414 H            1 H4M284   0.0000
    53 H8          -0.9027    18.7044    -0.9031 H            1 H4M284   0.0000
    54 H9M1        -1.0263    20.5523    -2.4406 H            1 H4M284   0.0000
    55 H9M2        -2.1251    19.4503    -2.9352 H            1 H4M284   0.0000
    56 H9M3        -2.6081    20.7646    -2.0950 H            1 H4M284   0.0000
    57 H12         -2.2083    20.3423     2.0569 H            1 H4M284   0.0000
    58 H13         -3.3494    20.8619     1.0107 H            1 H4M284   0.0000
    59 H14          2.3094    21.8488    -1.6201 H            1 H4M284   0.0000
    60 H15          0.4907    20.3095    -1.4804 H            1 H4M284   0.0000
    61 H16         -1.2100    22.5283     1.5653 H            1 H4M284   0.0000
    62 H17          0.6545    24.0320     1.4797 H            1 H4M284   0.0000
    63 HX11         2.5214    24.9286     0.3899 H            1 H4M284   0.0000
    64 HX12         2.9445    24.3795    -1.0887 H            1 H4M284   0.0000
    65 HX2          4.4285    22.8141    -0.0855 H            1 H4M284   0.0000
    66 HX3          5.1474    25.3536     1.0427 H            1 H4M284   0.0000
    67 HX4          6.7170    23.5397     1.4082 H            1 H4M284   0.0000
    68 HX51         7.0743    23.6876    -1.4587 H            1 H4M284   0.0000
    69 HX52         6.3280    22.4313    -0.7297 H            1 H4M284   0.0000
    70 H25          4.2575    22.2456     1.9184 H            1 H4M284   0.0000
    71 H26          6.0580    25.9674    -0.9689 H            1 H4M284   0.0000
    72 H27          7.7794    25.4463     1.3750 H            1 H4M284   0.0000
    73 H5J1        13.0097    23.3964    -0.4815 H            1 H4M284   0.0000
    74 H5J2        13.2597    21.7981    -0.2589 H            1 H4M284   0.0000
    75 H4J         11.2094    22.4221     0.7103 H            1 H4M284   0.0000
    76 H3J         11.4645    20.3738    -1.0321 H            1 H4M284   0.0000
    77 H32         10.7031    19.4990     0.7613 H            1 H4M284   0.0000
    78 H2J         10.0003    21.1107    -2.6021 H            1 H4M284   0.0000
    79 H34          7.8742    20.8406    -0.8387 H            1 H4M284   0.0000
    80 H1J          8.8615    23.0851    -2.2141 H            1 H4M284   0.0000
    81 H36         -5.9419    18.6958     4.2280 H            1 H4M284   0.0000
    82 HH4         -4.4624    20.4050     3.9222 H            1 H4M284   0.0000
@<TRIPOS>BOND
     1    1    2       2
     2    1   13       1
     3    2    3       1
     4    2    4       1
     5    4    5       1
     6    5    6       1
     7    5    7       2
     8    7    8       1
     9    7   13       1
    10    8    9       1
    11    8   16       1
    12    9   10       1
    13    9   14       1
    14   10   11       1
    15   10   12       1
    16   12   13       2
    17   14   15       1
    18   14   17       1
    19   16   17       1
    20   17   21       1
    21   18   19      ar
    22   18   23      ar
    23   18   24       1
    24   19   20      ar
    25   20   21      ar
    26   21   22      ar
    27   22   23      ar
    28   24   25       1
    29   25   26       1
    30   25   29       1
    31   26   27       1
    32   26   30       1
    33   27   28       1
    34   27   31       1
    35   28   32       1
    36   32   41       1
    37   33   34       1
    38   33   42       1
    39   34   35       1
    40   35   36       1
    41   35   37       1
    42   36   41       1
    43   37   38       1
    44   37   39       1
    45   39   40       1
    46   39   41       1
    47   42   43      ar
    48   42   44      ar
    49   42   45      ar
    50    4   81       1
    51    3   46       1
    52    3   47       1
    53    9   48       1
    54   10   49       1
    55   11   50       1
    56   11   51       1
    57   11   52       1
    58    6   82       1
    59   14   53       1
    60   15   54       1
    61   15   55       1
    62   15   56       1
    63   16   57       1
    64   16   58       1
    65   19   59       1
    66   20   60       1
    67   22   61       1
    68   23   62       1
    69   24   63       1
    70   24   64       1
    71   25   65       1
    72   26   66       1
    73   27   67       1
    74   28   68       1
    75   28   69       1
    76   29   70       1
    77   30   71       1
    78   31   72       1
    79   34   73       1
    80   34   74       1
    81   35   75       1
    82   37   76       1
    83   38   77       1
    84   39   78       1
    85   40   79       1
    86   41   80       1
@<TRIPOS>SUBSTRUCTURE
     1 H4M284      1 GROUP             4 C     H4M     0 **** H4M C 284
