@<TRIPOS>MOLECULE
2vwi_ANP_3_ligand
   44    46     1     0     0
SMALL
NO_CHARGES


@<TRIPOS>ATOM
     1 PG          75.0150   142.5610     6.8650 P.3          1 ANP1294   0.0000
     2 O1G         76.0890   141.3880     6.5320 O.co2        1 ANP1294   0.0000
     3 O2G         73.8890   141.8560     7.8030 O.co2        1 ANP1294  -1.0000
     4 O3G         75.6440   143.7280     7.5430 O.co2        1 ANP1294  -1.0000
     5 PB          75.2720   143.3440     4.2750 P.3          1 ANP1294   0.0000
     6 O1B         74.5290   144.2170     3.3360 O.co2        1 ANP1294   0.0000
     7 O2B         76.5700   143.7980     4.8200 O.co2        1 ANP1294  -1.0000
     8 N3B         74.2550   142.9320     5.4770 N.3          1 ANP1294   0.0000
     9 PA          74.3780   140.9490     3.0430 P.3          1 ANP1294   0.0000
    10 O1A         73.0540   141.5700     3.2440 O.co2        1 ANP1294   0.0000
    11 O2A         74.6630   139.6250     3.6380 O.co2        1 ANP1294  -1.0000
    12 O3A         75.5480   141.9490     3.5210 O.3          1 ANP1294   0.0000
    13 O5'         74.6330   140.8170     1.4420 O.3          1 ANP1294   0.0000
    14 C5'         75.9580   140.6470     0.9090 C.3          1 ANP1294   0.0000
    15 C4'         76.0930   141.2600    -0.5060 C.3          1 ANP1294   0.0000
    16 O4'         75.0890   140.6770    -1.3950 O.3          1 ANP1294   0.0000
    17 C3'         75.8570   142.7780    -0.5060 C.3          1 ANP1294   0.0000
    18 O3'         76.7460   143.4040    -1.4420 O.3          1 ANP1294   0.0000
    19 C2'         74.4180   142.9040    -0.9900 C.3          1 ANP1294   0.0000
    20 O2'         74.2280   144.1630    -1.6400 O.3          1 ANP1294   0.0000
    21 C1'         74.3280   141.7520    -1.9930 C.3          1 ANP1294   0.0000
    22 N9          72.9470   141.2430    -2.1630 N.pl3        1 ANP1294   0.0000
    23 C8          72.1490   140.7770    -1.1940 C.2          1 ANP1294   0.0000
    24 N7          70.9830   140.4040    -1.7210 N.2          1 ANP1294   0.0000
    25 C5          71.0410   140.6240    -3.0320 C.ar         1 ANP1294   0.0000
    26 C6          70.1470   140.4350    -4.0820 C.ar         1 ANP1294   0.0000
    27 N6          68.9380   139.9330    -3.8550 N.pl3        1 ANP1294   0.0000
    28 N1          70.5220   140.7750    -5.3280 N.ar         1 ANP1294   0.0000
    29 C2          71.7270   141.2820    -5.5650 C.ar         1 ANP1294   0.0000
    30 N3          72.6030   141.4730    -4.5850 N.ar         1 ANP1294   0.0000
    31 C4          72.2890   141.1560    -3.3150 C.ar         1 ANP1294   0.0000
    32 H3B         73.7233   142.1373     5.1842 H            1 ANP1294   0.0000
    33 H5'1        76.1636   139.6696     0.8591 H            1 ANP1294   0.0000
    34 H5'2        76.6119   141.0944     1.5191 H            1 ANP1294   0.0000
    35 H4'         77.0060   141.0666    -0.8652 H            1 ANP1294   0.0000
    36 H3'         75.9663   143.1621     0.4108 H            1 ANP1294   0.0000
    37 H6          76.2126   143.8837    -2.1387 H            1 ANP1294   0.0000
    38 H2'         73.7701   142.7822    -0.2381 H            1 ANP1294   0.0000
    39 H8          74.4268   144.0679    -2.6154 H            1 ANP1294   0.0000
    40 H1'         74.7197   142.0169    -2.8741 H            1 ANP1294   0.0000
    41 H10         72.3904   140.7180    -0.2254 H            1 ANP1294   0.0000
    42 H11         68.3011   139.8001    -4.6144 H            1 ANP1294   0.0000
    43 H12         68.6649   139.6881    -2.9247 H            1 ANP1294   0.0000
    44 H13         71.9799   141.5251    -6.5015 H            1 ANP1294   0.0000
@<TRIPOS>BOND
     1    1    2      ar
     2    1    3      ar
     3    1    4      ar
     4    1    8       1
     5    5    6      ar
     6    5    7      ar
     7    5    8       1
     8    5   12       1
     9    9   10      ar
    10    9   11      ar
    11    9   12       1
    12    9   13       1
    13   13   14       1
    14   14   15       1
    15   15   16       1
    16   15   17       1
    17   16   21       1
    18   17   18       1
    19   17   19       1
    20   19   20       1
    21   19   21       1
    22   21   22       1
    23   22   23       1
    24   22   31       1
    25   23   24       2
    26   24   25       1
    27   25   26      ar
    28   25   31      ar
    29   26   27       1
    30   26   28      ar
    31   28   29      ar
    32   29   30      ar
    33   30   31      ar
    34   29   44       1
    35   27   43       1
    36   27   42       1
    37    8   32       1
    38   23   41       1
    39   14   33       1
    40   14   34       1
    41   15   35       1
    42   17   36       1
    43   18   37       1
    44   19   38       1
    45   20   39       1
    46   21   40       1
@<TRIPOS>SUBSTRUCTURE
     1 ANP1294     1 GROUP             4 C     ANP     0 **** ANP C1294
