@<TRIPOS>MOLECULE
1r6a_SAH_2_ligand
   46    48     1     0     0
SMALL
NO_CHARGES


@<TRIPOS>ATOM
     1 N            9.9820   -45.9600    -1.2410 N.4          1 SAH887   1.0000
     2 CA          11.2790   -46.6350    -1.2740 C.3          1 SAH887   0.0000
     3 CB          11.9150   -46.6210     0.1240 C.3          1 SAH887   0.0000
     4 CG          13.0770   -45.7890     0.2050 C.3          1 SAH887   0.0000
     5 SD          13.8430   -45.7570     1.8440 S.3          1 SAH887   0.0000
     6 C           11.1710   -48.1060    -1.7810 C.2          1 SAH887   0.0000
     7 O           10.0200   -48.4730    -2.0810 O.co2        1 SAH887   0.0000
     8 OXT         12.0160   -48.3460    -2.6990 O.co2        1 SAH887  -1.0000
     9 C5'         14.1340   -43.9890     1.9900 C.3          1 SAH887   0.0000
    10 C4'         15.3390   -43.4400     1.2450 C.3          1 SAH887   0.0000
    11 O4'         15.4540   -42.0260     1.4910 O.3          1 SAH887   0.0000
    12 C3'         16.6800   -44.0290     1.6750 C.3          1 SAH887   0.0000
    13 O3'         17.0880   -44.9730     0.6650 O.3          1 SAH887   0.0000
    14 C2'         17.6590   -42.8470     1.7770 C.3          1 SAH887   0.0000
    15 O2'         18.8960   -42.9550     1.1000 O.3          1 SAH887   0.0000
    16 C1'         16.7900   -41.6780     1.3260 C.3          1 SAH887   0.0000
    17 N9          17.0650   -40.4020     1.9910 N.pl3        1 SAH887   0.0000
    18 C8          17.2590   -40.1350     3.3220 C.2          1 SAH887   0.0000
    19 N7          17.4830   -38.8710     3.5820 N.2          1 SAH887   0.0000
    20 C5          17.4390   -38.2510     2.3440 C.ar         1 SAH887   0.0000
    21 C6          17.5970   -36.8920     1.9180 C.ar         1 SAH887   0.0000
    22 N6          17.8470   -35.8900     2.7440 N.pl3        1 SAH887   0.0000
    23 N1          17.4910   -36.6130     0.5770 N.ar         1 SAH887   0.0000
    24 C2          17.2390   -37.6350    -0.2390 C.ar         1 SAH887   0.0000
    25 N3          17.0670   -38.9520     0.0450 N.ar         1 SAH887   0.0000
    26 C4          17.1750   -39.1970     1.3410 C.ar         1 SAH887   0.0000
    27 H1          10.1077   -44.9868    -1.4334 H            1 SAH887   0.0000
    28 H2           9.3798   -46.3611    -1.9313 H            1 SAH887   0.0000
    29 HA          11.8786   -46.1320    -1.8964 H            1 SAH887   0.0000
    30 HB1         12.1759   -47.5560     0.3641 H            1 SAH887   0.0000
    31 HB2         11.2373   -46.2855     0.7784 H            1 SAH887   0.0000
    32 HG1         12.8133   -44.8554    -0.0376 H            1 SAH887   0.0000
    33 HG2         13.7519   -46.1260    -0.4515 H            1 SAH887   0.0000
    34 H5'1        14.2546   -43.7794     2.9603 H            1 SAH887   0.0000
    35 H5'2        13.3223   -43.5174     1.6455 H            1 SAH887   0.0000
    36 H4'         15.2144   -43.5922     0.2645 H            1 SAH887   0.0000
    37 H3'         16.5915   -44.4844     2.5609 H            1 SAH887   0.0000
    38 H12         17.6365   -45.6954     1.0861 H            1 SAH887   0.0000
    39 H2'         17.8613   -42.7108     2.7468 H            1 SAH887   0.0000
    40 H14         19.4005   -43.7436     1.4514 H            1 SAH887   0.0000
    41 H1'         16.9475   -41.5467     0.3473 H            1 SAH887   0.0000
    42 H16         17.2319   -40.8410     4.0296 H            1 SAH887   0.0000
    43 H17         17.9473   -34.9612     2.3874 H            1 SAH887   0.0000
    44 H18         17.9357   -36.0611     3.7252 H            1 SAH887   0.0000
    45 H19         17.1653   -37.3966    -1.2074 H            1 SAH887   0.0000
    46 H20          9.5716   -46.0706    -0.3358 H            1 SAH887   0.0000
@<TRIPOS>BOND
     1    1    2       1
     2    2    3       1
     3    2    6       1
     4    3    4       1
     5    4    5       1
     6    5    9       1
     7    6    7      ar
     8    6    8      ar
     9    9   10       1
    10   10   11       1
    11   10   12       1
    12   11   16       1
    13   12   13       1
    14   12   14       1
    15   14   15       1
    16   14   16       1
    17   16   17       1
    18   17   18       1
    19   17   26       1
    20   18   19       2
    21   19   20       1
    22   20   21      ar
    23   20   26      ar
    24   21   22       1
    25   21   23      ar
    26   23   24      ar
    27   24   25      ar
    28   25   26      ar
    29    1   27       1
    30    1   28       1
    31    2   29       1
    32    3   30       1
    33    3   31       1
    34    4   32       1
    35    4   33       1
    36    1   46       1
    37    9   34       1
    38    9   35       1
    39   10   36       1
    40   12   37       1
    41   13   38       1
    42   14   39       1
    43   15   40       1
    44   16   41       1
    45   18   42       1
    46   22   43       1
    47   22   44       1
    48   24   45       1
@<TRIPOS>SUBSTRUCTURE
     1 SAH887      1 GROUP             4 A     SAH     0 **** SAH A 887
