@<TRIPOS>MOLECULE
2os1_BB2_1_ligand
   59    59     1     0     0
SMALL
NO_CHARGES


@<TRIPOS>ATOM
     1 C5          16.5330    49.8700    25.7500 C.3          1 BB2400   0.0000
     2 C3          17.2140    50.8600    24.7970 C.2          1 BB2400   0.0000
     3 O4          17.8430    51.7940    25.3280 O.2          1 BB2400   0.0000
     4 N1          17.1160    50.6960    23.4850 N.am         1 BB2400   0.0000
     5 O2          17.6260    51.4390    22.6490 O.3          1 BB2400  -1.0000
     6 C6          15.0390    50.3320    26.0020 C.3          1 BB2400   0.0000
     7 C12         14.4230    49.7990    27.3140 C.2          1 BB2400   0.0000
     8 O13         14.4590    48.6120    27.6230 O.2          1 BB2400   0.0000
     9 C7          14.2170    49.7610    24.7810 C.3          1 BB2400   0.0000
    10 C8          12.7270    50.1480    24.8690 C.3          1 BB2400   0.0000
    11 C9          11.9390    49.5980    23.6890 C.3          1 BB2400   0.0000
    12 C10         10.5690    50.2510    23.5410 C.3          1 BB2400   0.0000
    13 C11          9.5160    49.5860    24.3510 C.3          1 BB2400   0.0000
    14 N14         13.8590    50.7240    28.0830 N.am         1 BB2400   0.0000
    15 C15         13.0350    50.4600    29.2660 C.3          1 BB2400   0.0000
    16 C16         13.4170    51.2850    30.5190 C.3          1 BB2400   0.0000
    17 C18         14.5680    52.2440    30.2770 C.3          1 BB2400   0.0000
    18 C17         13.7640    50.2900    31.6240 C.3          1 BB2400   0.0000
    19 C19         11.5620    50.7200    28.8760 C.2          1 BB2400   0.0000
    20 O20         11.2700    51.7720    28.3010 O.2          1 BB2400   0.0000
    21 N21         10.6410    49.7800    29.1810 N.am         1 BB2400   0.0000
    22 C22          9.2180    49.9300    28.8560 C.3          1 BB2400   0.0000
    23 C23         10.9170    48.4760    29.8760 C.3          1 BB2400   0.0000
    24 C24          9.5580    47.8230    29.9620 C.3          1 BB2400   0.0000
    25 C25          8.7200    48.4840    28.9060 C.3          1 BB2400   0.0000
    26 C26          8.4360    50.8070    29.8460 C.2          1 BB2400   0.0000
    27 O27          8.4130    52.0540    29.6260 O.2          1 BB2400   0.0000
    28 H1          17.0274    49.8485    26.6190 H            1 BB2400   0.0000
    29 H2          16.5363    48.9570    25.3420 H            1 BB2400   0.0000
    30 H3          16.5904    49.9131    23.1522 H            1 BB2400   0.0000
    31 H4          14.9941    51.3310    25.9952 H            1 BB2400   0.0000
    32 H5          14.2936    48.7639    24.7761 H            1 BB2400   0.0000
    33 H6          14.5982    50.1287    23.9328 H            1 BB2400   0.0000
    34 H7          12.6498    51.1450    24.8753 H            1 BB2400   0.0000
    35 H8          12.3445    49.7787    25.7160 H            1 BB2400   0.0000
    36 H9          11.8124    48.6146    23.8193 H            1 BB2400   0.0000
    37 H10         12.4622    49.7587    22.8521 H            1 BB2400   0.0000
    38 H11         10.3010    50.2138    22.5783 H            1 BB2400   0.0000
    39 H12         10.6384    51.2055    23.8310 H            1 BB2400   0.0000
    40 H13          8.6438    50.0556    24.2141 H            1 BB2400   0.0000
    41 H14          9.4290    48.6315    24.0657 H            1 BB2400   0.0000
    42 H15          9.7664    49.6232    25.3184 H            1 BB2400   0.0000
    43 H16         14.0093    51.6807    27.8337 H            1 BB2400   0.0000
    44 H17         13.1266    49.4910    29.4954 H            1 BB2400   0.0000
    45 H18         12.6184    51.8135    30.8069 H            1 BB2400   0.0000
    46 H19         14.7667    52.7455    31.1190 H            1 BB2400   0.0000
    47 H20         15.3779    51.7287    29.9969 H            1 BB2400   0.0000
    48 H21         14.3178    52.8898    29.5556 H            1 BB2400   0.0000
    49 H22         14.0172    50.7879    32.4535 H            1 BB2400   0.0000
    50 H23         12.9709    49.7106    31.8120 H            1 BB2400   0.0000
    51 H24         14.5312    49.7198    31.3303 H            1 BB2400   0.0000
    52 H25          9.1177    50.2918    27.9292 H            1 BB2400   0.0000
    53 H26         11.2967    48.6311    30.7880 H            1 BB2400   0.0000
    54 H27         11.5496    47.9144    29.3427 H            1 BB2400   0.0000
    55 H28          9.1577    47.9695    30.8666 H            1 BB2400   0.0000
    56 H29          9.6313    46.8415    29.7848 H            1 BB2400   0.0000
    57 H30          8.8509    48.0361    28.0216 H            1 BB2400   0.0000
    58 H31          7.7520    48.4537    29.1550 H            1 BB2400   0.0000
    59 H32          7.9640    50.4090    30.6327 H            1 BB2400   0.0000
@<TRIPOS>BOND
     1    1    2       1
     2    1    6       1
     3    2    3       2
     4    2    4      am
     5    4    5       1
     6    6    7       1
     7    6    9       1
     8    7    8       2
     9    7   14      am
    10    9   10       1
    11   10   11       1
    12   11   12       1
    13   12   13       1
    14   14   15       1
    15   15   16       1
    16   15   19       1
    17   16   17       1
    18   16   18       1
    19   19   20       2
    20   19   21      am
    21   21   22       1
    22   21   23       1
    23   22   25       1
    24   22   26       1
    25   23   24       1
    26   24   25       1
    27   26   27       2
    28    1   28       1
    29    1   29       1
    30    4   30       1
    31   26   59       1
    32    6   31       1
    33    9   32       1
    34    9   33       1
    35   10   34       1
    36   10   35       1
    37   11   36       1
    38   11   37       1
    39   12   38       1
    40   12   39       1
    41   13   40       1
    42   13   41       1
    43   13   42       1
    44   14   43       1
    45   15   44       1
    46   16   45       1
    47   17   46       1
    48   17   47       1
    49   17   48       1
    50   18   49       1
    51   18   50       1
    52   18   51       1
    53   22   52       1
    54   23   53       1
    55   23   54       1
    56   24   55       1
    57   24   56       1
    58   25   57       1
    59   25   58       1
@<TRIPOS>SUBSTRUCTURE
     1 BB2400      1 GROUP             4 A     BB2     0 **** BB2 A 400
