@<TRIPOS>MOLECULE
4imp_NDP_2_ligand
   73    77     1     0     0
SMALL
NO_CHARGES


@<TRIPOS>ATOM
     1 PA         -40.8400   -66.3150    61.8820 P.3          1 NDP1501   0.0000
     2 O1A        -41.3600   -65.1770    61.1700 O.co2        1 NDP1501   0.0000
     3 O2A        -41.1370   -66.5410    63.2800 O.co2        1 NDP1501  -1.0000
     4 O5B        -41.2780   -67.5580    61.0910 O.3          1 NDP1501   0.0000
     5 C5B        -41.2180   -68.8440    61.6590 C.3          1 NDP1501   0.0000
     6 C4B        -42.4990   -69.5590    61.2990 C.3          1 NDP1501   0.0000
     7 O4B        -42.4120   -70.9570    61.4430 O.3          1 NDP1501   0.0000
     8 C3B        -43.6280   -69.1280    62.1800 C.3          1 NDP1501   0.0000
     9 O3B        -44.4290   -68.4390    61.2670 O.3          1 NDP1501   0.0000
    10 C2B        -44.3230   -70.3820    62.6330 C.3          1 NDP1501   0.0000
    11 O2B        -45.7080   -70.4360    62.3570 O.3          1 NDP1501   0.0000
    12 C1B        -43.6520   -71.4680    61.8430 C.3          1 NDP1501   0.0000
    13 N9A        -43.5790   -72.6250    62.7430 N.pl3        1 NDP1501   0.0000
    14 C8A        -43.0950   -72.6590    63.9740 C.2          1 NDP1501   0.0000
    15 N7A        -43.2460   -73.8720    64.4950 N.2          1 NDP1501   0.0000
    16 C5A        -43.8390   -74.6320    63.5880 C.ar         1 NDP1501   0.0000
    17 C6A        -44.3030   -76.0180    63.4710 C.ar         1 NDP1501   0.0000
    18 N6A        -44.1360   -76.8820    64.4700 N.pl3        1 NDP1501   0.0000
    19 N1A        -44.8780   -76.4030    62.3420 N.ar         1 NDP1501   0.0000
    20 C2A        -45.0390   -75.5690    61.3270 C.ar         1 NDP1501   0.0000
    21 N3A        -44.6510   -74.3140    61.3580 N.ar         1 NDP1501   0.0000
    22 C4A        -44.0590   -73.8000    62.4380 C.ar         1 NDP1501   0.0000
    23 O3         -39.3000   -66.3410    61.6840 O.3          1 NDP1501   0.0000
    24 PN         -38.5860   -66.0750    60.3200 P.3          1 NDP1501   0.0000
    25 O1N        -37.7010   -64.9670    60.5470 O.co2        1 NDP1501   0.0000
    26 O2N        -39.5340   -66.0610    59.2280 O.co2        1 NDP1501  -1.0000
    27 O5D        -37.5680   -67.2380    60.1360 O.3          1 NDP1501   0.0000
    28 C5D        -37.9250   -68.5590    59.8140 C.3          1 NDP1501   0.0000
    29 C4D        -36.7040   -69.4210    59.5640 C.3          1 NDP1501   0.0000
    30 O4D        -35.6130   -68.6790    59.0610 O.3          1 NDP1501   0.0000
    31 C3D        -36.2710   -70.0200    60.8640 C.3          1 NDP1501   0.0000
    32 O3D        -35.8050   -71.3230    60.6240 O.3          1 NDP1501   0.0000
    33 C2D        -35.0480   -69.2830    61.2150 C.3          1 NDP1501   0.0000
    34 O2D        -34.2630   -70.1920    61.9560 O.3          1 NDP1501   0.0000
    35 C1D        -34.4910   -68.9700    59.8510 C.3          1 NDP1501   0.0000
    36 N1N        -33.6300   -67.8190    59.9310 N.ar         1 NDP1501   1.0000
    37 C2N        -34.1160   -66.6140    60.0810 C.ar         1 NDP1501   0.0000
    38 C3N        -33.2760   -65.5280    60.1650 C.ar         1 NDP1501   0.0000
    39 C7N        -33.8010   -64.1420    60.3330 C.2          1 NDP1501   0.0000
    40 O7N        -33.0730   -63.2470    60.0450 O.2          1 NDP1501   0.0000
    41 N7N        -35.0110   -63.9090    60.7900 N.am         1 NDP1501   0.0000
    42 C4N        -31.7910   -65.6770    60.1000 C.ar         1 NDP1501   0.0000
    43 C5N        -31.4130   -67.0360    59.9470 C.ar         1 NDP1501   0.0000
    44 C6N        -32.3400   -68.0250    59.8710 C.ar         1 NDP1501   0.0000
    45 P2B        -46.7130   -70.8200    63.5040 P.3          1 NDP1501   0.0000
    46 O1X        -47.9480   -70.2680    62.9890 O.co2        1 NDP1501   0.0000
    47 O2X        -46.7400   -72.2670    63.7420 O.co2        1 NDP1501  -1.0000
    48 O3X        -46.1740   -70.1050    64.6460 O.co2        1 NDP1501  -1.0000
    49 H5B1       -41.1333   -68.7747    62.6530 H            1 NDP1501   0.0000
    50 H5B2       -40.4333   -69.3433    61.2916 H            1 NDP1501   0.0000
    51 H4B        -42.7313   -69.3464    60.3499 H            1 NDP1501   0.0000
    52 H3B        -43.3277   -68.5544    62.9421 H            1 NDP1501   0.0000
    53 H5         -45.3288   -68.8727    61.2193 H            1 NDP1501   0.0000
    54 H2B        -44.1649   -70.5247    63.6101 H            1 NDP1501   0.0000
    55 H1B        -44.2025   -71.6951    61.0396 H            1 NDP1501   0.0000
    56 H8A        -42.6756   -71.8829    64.4449 H            1 NDP1501   0.0000
    57 H6A1       -44.4578   -77.8241    64.3754 H            1 NDP1501   0.0000
    58 H6A2       -43.6887   -76.5889    65.3150 H            1 NDP1501   0.0000
    59 H2A        -45.4774   -75.9107    60.4957 H            1 NDP1501   0.0000
    60 H5D1       -38.4908   -68.5506    58.9895 H            1 NDP1501   0.0000
    61 H5D2       -38.4473   -68.9482    60.5727 H            1 NDP1501   0.0000
    62 H4D        -36.9364   -70.1508    58.9210 H            1 NDP1501   0.0000
    63 H3D        -36.9752   -69.9768    61.5727 H            1 NDP1501   0.0000
    64 H16        -36.5648   -71.9684    60.7021 H            1 NDP1501   0.0000
    65 H2D        -35.2489   -68.4531    61.7354 H            1 NDP1501   0.0000
    66 H18        -33.7020   -69.6890    62.6135 H            1 NDP1501   0.0000
    67 H1D        -33.9951   -69.7567    59.4834 H            1 NDP1501   0.0000
    68 H2N        -35.1057   -66.4812    60.1350 H            1 NDP1501   0.0000
    69 H7N1       -35.3346   -62.9683    60.8915 H            1 NDP1501   0.0000
    70 H7N2       -35.6081   -64.6724    61.0362 H            1 NDP1501   0.0000
    71 H4N        -31.1453   -64.9156    60.1571 H            1 NDP1501   0.0000
    72 H5N        -30.4423   -67.2705    59.8940 H            1 NDP1501   0.0000
    73 H6N        -32.0177   -68.9654    59.7629 H            1 NDP1501   0.0000
@<TRIPOS>BOND
     1    1    2      ar
     2    1    3      ar
     3    1    4       1
     4    1   23       1
     5    4    5       1
     6    5    6       1
     7    6    7       1
     8    6    8       1
     9    7   12       1
    10    8    9       1
    11    8   10       1
    12   10   11       1
    13   10   12       1
    14   11   45       1
    15   12   13       1
    16   13   14       1
    17   13   22       1
    18   14   15       2
    19   15   16       1
    20   16   17      ar
    21   16   22      ar
    22   17   18       1
    23   17   19      ar
    24   19   20      ar
    25   20   21      ar
    26   21   22      ar
    27   23   24       1
    28   24   25      ar
    29   24   26      ar
    30   24   27       1
    31   27   28       1
    32   28   29       1
    33   29   30       1
    34   29   31       1
    35   30   35       1
    36   31   32       1
    37   31   33       1
    38   33   34       1
    39   33   35       1
    40   35   36       1
    41   36   37      ar
    42   36   44      ar
    43   37   38      ar
    44   38   39       1
    45   38   42      ar
    46   39   40       2
    47   39   41      am
    48   42   43      ar
    49   43   44      ar
    50   45   46      ar
    51   45   47      ar
    52   45   48      ar
    53   43   72       1
    54    5   49       1
    55    5   50       1
    56    6   51       1
    57    8   52       1
    58    9   53       1
    59   10   54       1
    60   12   55       1
    61   14   56       1
    62   18   57       1
    63   18   58       1
    64   20   59       1
    65   44   73       1
    66   28   60       1
    67   28   61       1
    68   29   62       1
    69   31   63       1
    70   32   64       1
    71   33   65       1
    72   34   66       1
    73   35   67       1
    74   37   68       1
    75   41   69       1
    76   41   70       1
    77   42   71       1
@<TRIPOS>SUBSTRUCTURE
     1 NDP1501     1 GROUP             4 B     NDP     0 **** NDP B1501
