@<TRIPOS>MOLECULE
4kik_KSA_2_ligand
   56    63     1     0     0
SMALL
NO_CHARGES


@<TRIPOS>ATOM
     1 O3         -14.8770   -28.6460   -70.2430 O.2          1 KSA700   0.0000
     2 C22        -15.6350   -28.8940   -71.1400 C.2          1 KSA700   0.0000
     3 O5         -16.8650   -28.3940   -71.2390 O.3          1 KSA700   0.0000
     4 C26        -17.2920   -27.4980   -70.1810 C.3          1 KSA700   0.0000
     5 C1         -15.3070   -29.8320   -72.3150 C.3          1 KSA700   0.0000
     6 O4         -16.3010   -29.8000   -73.3370 O.3          1 KSA700   0.0000
     7 C2         -15.1610   -31.3640   -71.9000 C.3          1 KSA700   0.0000
     8 O1         -13.8480   -31.2830   -71.3780 O.3          1 KSA700   0.0000
     9 C25        -16.0170   -31.8490   -70.7400 C.3          1 KSA700   0.0000
    10 N1         -15.2040   -32.3810   -73.0800 N.pl3        1 KSA700   0.0000
    11 C3         -14.0500   -32.8250   -73.7880 C.ar         1 KSA700   0.0000
    12 C4         -12.7130   -32.3570   -73.7290 C.ar         1 KSA700   0.0000
    13 N2         -12.1760   -31.3030   -73.0180 N.pl3        1 KSA700   0.0000
    14 C24        -12.9870   -30.4250   -72.1290 C.3          1 KSA700   0.0000
    15 C27        -13.9100   -29.4640   -72.8680 C.3          1 KSA700   0.0000
    16 C17        -10.8210   -31.1870   -73.3480 C.ar         1 KSA700   0.0000
    17 C18         -9.8500   -30.3360   -72.8360 C.ar         1 KSA700   0.0000
    18 C19         -8.5480   -30.4490   -73.3080 C.ar         1 KSA700   0.0000
    19 C20         -8.2280   -31.3820   -74.2880 C.ar         1 KSA700   0.0000
    20 C21         -9.2010   -32.2290   -74.8030 C.ar         1 KSA700   0.0000
    21 C16        -10.5060   -32.1570   -74.3180 C.ar         1 KSA700   0.0000
    22 C5         -11.7210   -32.9160   -74.5590 C.ar         1 KSA700   0.0000
    23 C6         -12.1090   -33.9430   -75.4370 C.ar         1 KSA700   0.0000
    24 C15        -11.3070   -34.7680   -76.3650 C.2          1 KSA700   0.0000
    25 O2         -10.1010   -34.7370   -76.5680 O.2          1 KSA700   0.0000
    26 C7         -13.4230   -34.3880   -75.5430 C.ar         1 KSA700   0.0000
    27 C23        -13.5370   -35.4670   -76.5830 C.3          1 KSA700   0.0000
    28 N3         -12.1530   -35.6420   -77.0090 N.am         1 KSA700   0.0000
    29 C8         -14.4110   -33.8210   -74.7190 C.ar         1 KSA700   0.0000
    30 C9         -15.8530   -33.9920   -74.6210 C.ar         1 KSA700   0.0000
    31 C10        -16.3100   -33.1010   -73.6290 C.ar         1 KSA700   0.0000
    32 C11        -17.6640   -33.0300   -73.3060 C.ar         1 KSA700   0.0000
    33 C14        -16.7750   -34.8100   -75.2740 C.ar         1 KSA700   0.0000
    34 C13        -18.1160   -34.7570   -74.9270 C.ar         1 KSA700   0.0000
    35 C12        -18.5550   -33.8790   -73.9480 C.ar         1 KSA700   0.0000
    36 H1         -18.2255   -27.1889   -70.3625 H            1 KSA700   0.0000
    37 H2         -17.2647   -27.9796   -69.3051 H            1 KSA700   0.0000
    38 H3         -16.6801   -26.7079   -70.1461 H            1 KSA700   0.0000
    39 H4         -16.0696   -29.0928   -74.0050 H            1 KSA700   0.0000
    40 H5         -15.8377   -32.8191   -70.5762 H            1 KSA700   0.0000
    41 H6         -15.7926   -31.3252   -69.9183 H            1 KSA700   0.0000
    42 H7         -16.9835   -31.7216   -70.9629 H            1 KSA700   0.0000
    43 H8         -12.3874   -29.9163   -71.5112 H            1 KSA700   0.0000
    44 H9         -13.6800   -28.5132   -72.6605 H            1 KSA700   0.0000
    45 H10        -13.8645   -29.6099   -73.8563 H            1 KSA700   0.0000
    46 H11        -10.0833   -29.6555   -72.1414 H            1 KSA700   0.0000
    47 H12         -7.8342   -29.8535   -72.9393 H            1 KSA700   0.0000
    48 H13         -7.2886   -31.4438   -74.6252 H            1 KSA700   0.0000
    49 H14         -8.9665   -32.8873   -75.5183 H            1 KSA700   0.0000
    50 H15        -14.1155   -35.1751   -77.3447 H            1 KSA700   0.0000
    51 H16        -13.9036   -36.3104   -76.1901 H            1 KSA700   0.0000
    52 H17        -11.8552   -36.3148   -77.6862 H            1 KSA700   0.0000
    53 H18        -17.9888   -32.3770   -72.6218 H            1 KSA700   0.0000
    54 H19        -16.4686   -35.4346   -75.9924 H            1 KSA700   0.0000
    55 H20        -18.7716   -35.3565   -75.3862 H            1 KSA700   0.0000
    56 H21        -19.5239   -33.8571   -73.7017 H            1 KSA700   0.0000
@<TRIPOS>BOND
     1    1    2       2
     2    2    3       1
     3    2    5       1
     4    3    4       1
     5    5    6       1
     6    5    7       1
     7    5   15       1
     8    7    8       1
     9    7    9       1
    10    7   10       1
    11    8   14       1
    12   10   11       1
    13   10   31       1
    14   11   12      ar
    15   11   29      ar
    16   12   13       1
    17   12   22      ar
    18   13   14       1
    19   13   16       1
    20   14   15       1
    21   16   17      ar
    22   16   21      ar
    23   17   18      ar
    24   18   19      ar
    25   19   20      ar
    26   20   21      ar
    27   21   22       1
    28   22   23      ar
    29   23   24       1
    30   23   26      ar
    31   24   25       2
    32   24   28      am
    33   26   27       1
    34   26   29      ar
    35   27   28       1
    36   29   30       1
    37   30   31      ar
    38   30   33      ar
    39   31   32      ar
    40   32   35      ar
    41   33   34      ar
    42   34   35      ar
    43    4   36       1
    44    4   37       1
    45    4   38       1
    46    6   39       1
    47    9   40       1
    48    9   41       1
    49    9   42       1
    50   14   43       1
    51   15   44       1
    52   15   45       1
    53   17   46       1
    54   18   47       1
    55   19   48       1
    56   20   49       1
    57   27   50       1
    58   27   51       1
    59   28   52       1
    60   32   53       1
    61   33   54       1
    62   34   55       1
    63   35   56       1
@<TRIPOS>SUBSTRUCTURE
     1 KSA700      1 GROUP             4 B     KSA     0 **** KSA B 700
