@<TRIPOS>MOLECULE
4af3_VX6_1_ligand
   62    66     1     0     0
SMALL
NO_CHARGES


@<TRIPOS>ATOM
     1 N1          26.8280   -20.5750   -15.1820 N.4          1 VX6500   1.0000
     2 C2          25.4860   -20.5210   -15.8370 C.3          1 VX6500   0.0000
     3 C3          24.4510   -20.1530   -14.8120 C.3          1 VX6500   0.0000
     4 N4          24.3950   -21.2370   -13.8010 N.pl3        1 VX6500   0.0000
     5 C5          25.5770   -22.1270   -13.6900 C.3          1 VX6500   0.0000
     6 C6          26.8130   -21.3150   -13.8930 C.3          1 VX6500   0.0000
     7 C7          27.4520   -19.2360   -14.9940 C.3          1 VX6500   0.0000
     8 C8          23.3460   -21.4550   -12.9810 C.ar         1 VX6500   0.0000
     9 C9          22.0410   -21.0120   -13.2100 C.ar         1 VX6500   0.0000
    10 C10         21.0530   -21.3320   -12.2770 C.ar         1 VX6500   0.0000
    11 N11         21.3890   -22.0610   -11.1880 N.ar         1 VX6500   0.0000
    12 C12         22.6500   -22.4860   -10.9950 C.ar         1 VX6500   0.0000
    13 N13         23.5980   -22.1820   -11.8830 N.ar         1 VX6500   0.0000
    14 N14         19.8000   -20.8790   -12.5020 N.pl3        1 VX6500   0.0000
    15 C15         18.7090   -21.2910   -11.8100 C.2          1 VX6500   0.0000
    16 C17         18.5290   -22.2470   -10.8890 C.2          1 VX6500   0.0000
    17 C18         17.2410   -22.1620   -10.5690 C.2          1 VX6500   0.0000
    18 N19         16.6830   -21.1950   -11.2730 N.pl3        1 VX6500   0.0000
    19 N20         17.5380   -20.6930   -11.9950 N.2          1 VX6500   0.0000
    20 C21         16.4520   -23.0090    -9.5610 C.3          1 VX6500   0.0000
    21 S23         23.1370   -23.4460    -9.5850 S.3          1 VX6500   0.0000
    22 C24         21.7750   -23.2610    -8.5580 C.ar         1 VX6500   0.0000
    23 C25         21.6380   -22.1030    -7.8120 C.ar         1 VX6500   0.0000
    24 C26         20.5450   -21.9470    -6.9750 C.ar         1 VX6500   0.0000
    25 C27         19.5730   -22.9410    -6.8680 C.ar         1 VX6500   0.0000
    26 C28         19.7240   -24.1110    -7.6340 C.ar         1 VX6500   0.0000
    27 C29         20.8230   -24.2630    -8.4670 C.ar         1 VX6500   0.0000
    28 N30         18.5490   -22.6830    -6.0290 N.am         1 VX6500   0.0000
    29 C31         17.5190   -23.5400    -5.9130 C.2          1 VX6500   0.0000
    30 O32         17.4040   -24.6060    -6.5110 O.2          1 VX6500   0.0000
    31 C33         16.4240   -23.0950    -4.9500 C.3          1 VX6500   0.0000
    32 C34         14.9990   -22.9710    -5.5090 C.3          1 VX6500   0.0000
    33 C35         15.3580   -24.1280    -4.6040 C.3          1 VX6500   0.0000
    34 H1          25.2677   -21.4157   -16.2266 H            1 VX6500   0.0000
    35 H2          25.4959   -19.8343   -16.5639 H            1 VX6500   0.0000
    36 H3          23.5586   -20.0541   -15.2523 H            1 VX6500   0.0000
    37 H4          24.7025   -19.2914   -14.3711 H            1 VX6500   0.0000
    38 H5          25.5262   -22.8415   -14.3878 H            1 VX6500   0.0000
    39 H6          25.5967   -22.5477   -12.7830 H            1 VX6500   0.0000
    40 H7          26.8836   -20.6532   -13.1467 H            1 VX6500   0.0000
    41 H8          27.6025   -21.9283   -13.8704 H            1 VX6500   0.0000
    42 H9          28.3432   -19.3425   -14.5530 H            1 VX6500   0.0000
    43 H10         27.5710   -18.7958   -15.8840 H            1 VX6500   0.0000
    44 H11         26.8609   -18.6706   -14.4188 H            1 VX6500   0.0000
    45 H12         21.8192   -20.4769   -14.0252 H            1 VX6500   0.0000
    46 H13         19.6693   -20.1984   -13.2228 H            1 VX6500   0.0000
    47 H14         19.2101   -22.8818   -10.5241 H            1 VX6500   0.0000
    48 H15         15.4997   -22.7043    -9.5428 H            1 VX6500   0.0000
    49 H16         16.4892   -23.9707    -9.8325 H            1 VX6500   0.0000
    50 H17         16.8531   -22.9038    -8.6510 H            1 VX6500   0.0000
    51 H18         22.3264   -21.3806    -7.8771 H            1 VX6500   0.0000
    52 H19         20.4517   -21.1080    -6.4390 H            1 VX6500   0.0000
    53 H20         19.0370   -24.8355    -7.5780 H            1 VX6500   0.0000
    54 H21         20.9283   -25.0998    -9.0042 H            1 VX6500   0.0000
    55 H22         18.5557   -21.8433    -5.4860 H            1 VX6500   0.0000
    56 H23         16.6864   -22.4540    -4.2287 H            1 VX6500   0.0000
    57 H24         14.8276   -23.1311    -6.4811 H            1 VX6500   0.0000
    58 H25         14.3935   -22.2470    -5.1786 H            1 VX6500   0.0000
    59 H26         14.9864   -24.1688    -3.6765 H            1 VX6500   0.0000
    60 H27         15.4204   -25.0529    -4.9790 H            1 VX6500   0.0000
    61 H28         27.4271   -21.0860   -15.7985 H            1 VX6500   0.0000
    62 H29         15.7233   -20.9179   -11.2256 H            1 VX6500   0.0000
@<TRIPOS>BOND
     1    1    2       1
     2    1    6       1
     3    1    7       1
     4    2    3       1
     5    3    4       1
     6    4    5       1
     7    4    8       1
     8    5    6       1
     9    8    9      ar
    10    8   13      ar
    11    9   10      ar
    12   10   11      ar
    13   10   14       1
    14   11   12      ar
    15   12   13      ar
    16   12   21       1
    17   14   15       1
    18   15   16       1
    19   15   19       2
    20   16   17       2
    21   17   18       1
    22   17   20       1
    23   18   19       1
    24   21   22       1
    25   22   23      ar
    26   22   27      ar
    27   23   24      ar
    28   24   25      ar
    29   25   26      ar
    30   25   28       1
    31   26   27      ar
    32   28   29      am
    33   29   30       2
    34   29   31       1
    35   31   32       1
    36   31   33       1
    37   32   33       1
    38    2   34       1
    39    2   35       1
    40    3   36       1
    41    3   37       1
    42    5   38       1
    43    5   39       1
    44    6   40       1
    45    6   41       1
    46    7   42       1
    47    7   43       1
    48    7   44       1
    49    9   45       1
    50   14   46       1
    51   16   47       1
    52    1   61       1
    53   20   48       1
    54   20   49       1
    55   20   50       1
    56   23   51       1
    57   24   52       1
    58   26   53       1
    59   27   54       1
    60   28   55       1
    61   31   56       1
    62   32   57       1
    63   32   58       1
    64   33   59       1
    65   33   60       1
    66   18   62       1
@<TRIPOS>SUBSTRUCTURE
     1 VX6500      1 GROUP             4 A     VX6     0 **** VX6 A 500
