@<TRIPOS>MOLECULE
3nv6_CAM_1_ligand
   27    28     1     0     0
SMALL
NO_CHARGES


@<TRIPOS>ATOM
     1 C1           4.7070    27.2810    13.5120 C.3          1 CAM422   0.0000
     2 C2           3.5720    28.1220    13.0340 C.2          1 CAM422   0.0000
     3 O            3.5430    28.7640    11.8040 O.2          1 CAM422   0.0000
     4 C3           2.4150    28.0660    13.9810 C.3          1 CAM422   0.0000
     5 C4           2.8580    26.8050    14.7010 C.3          1 CAM422   0.0000
     6 C5           2.9830    25.6980    13.6320 C.3          1 CAM422   0.0000
     7 C6           4.2700    25.9680    12.8660 C.3          1 CAM422   0.0000
     8 C7           4.3150    27.1340    14.9640 C.3          1 CAM422   0.0000
     9 C8           4.4380    28.4490    15.7120 C.3          1 CAM422   0.0000
    10 C9           4.9460    25.9670    15.6980 C.3          1 CAM422   0.0000
    11 C10          6.1060    27.8310    13.2150 C.3          1 CAM422   0.0000
    12 H1           1.5381    27.9556    13.5131 H            1 CAM422   0.0000
    13 H2           2.3723    28.8612    14.5859 H            1 CAM422   0.0000
    14 H3           2.3211    26.5618    15.5088 H            1 CAM422   0.0000
    15 H4           2.1999    25.7295    13.0109 H            1 CAM422   0.0000
    16 H5           3.0252    24.8000    14.0699 H            1 CAM422   0.0000
    17 H6           4.9441    25.2435    13.0095 H            1 CAM422   0.0000
    18 H7           4.1009    26.0767    11.8864 H            1 CAM422   0.0000
    19 H8           4.1717    28.3157    16.6666 H            1 CAM422   0.0000
    20 H9           5.3848    28.7682    15.6715 H            1 CAM422   0.0000
    21 H10          3.8385    29.1295    15.2906 H            1 CAM422   0.0000
    22 H11          4.6255    25.9564    16.6452 H            1 CAM422   0.0000
    23 H12          4.6874    25.1117    15.2490 H            1 CAM422   0.0000
    24 H13          5.9413    26.0632    15.6839 H            1 CAM422   0.0000
    25 H14          6.7949    27.2003    13.5723 H            1 CAM422   0.0000
    26 H15          6.2233    27.9277    12.2266 H            1 CAM422   0.0000
    27 H16          6.2129    28.7240    13.6523 H            1 CAM422   0.0000
@<TRIPOS>BOND
     1    1    2       1
     2    1    7       1
     3    1    8       1
     4    1   11       1
     5    2    3       2
     6    2    4       1
     7    4    5       1
     8    5    6       1
     9    5    8       1
    10    6    7       1
    11    8    9       1
    12    8   10       1
    13    4   12       1
    14    4   13       1
    15    5   14       1
    16    6   15       1
    17    6   16       1
    18    7   17       1
    19    7   18       1
    20    9   19       1
    21    9   20       1
    22    9   21       1
    23   10   22       1
    24   10   23       1
    25   10   24       1
    26   11   25       1
    27   11   26       1
    28   11   27       1
@<TRIPOS>SUBSTRUCTURE
     1 CAM422      1 GROUP             4 A     CAM     0 **** CAM A 422
