@<TRIPOS>MOLECULE
3zzn_ADP_2_ligand
   39    41     1     0     0
SMALL
NO_CHARGES


@<TRIPOS>ATOM
     1 PB          25.7820   -15.4330     8.9700 P.3          1 ADP1332   0.0000
     2 O1B         26.5000   -15.9410    10.1880 O.co2        1 ADP1332   0.0000
     3 O2B         25.4600   -16.4910     7.9540 O.co2        1 ADP1332  -1.0000
     4 O3B         24.6430   -14.4920     9.2430 O.co2        1 ADP1332  -1.0000
     5 PA          27.8660   -15.2030     7.1340 P.3          1 ADP1332   0.0000
     6 O1A         27.2250   -15.1240     5.7800 O.co2        1 ADP1332   0.0000
     7 O2A         29.2370   -14.6240     7.3450 O.co2        1 ADP1332  -1.0000
     8 O3A         26.8830   -14.5440     8.2180 O.3          1 ADP1332   0.0000
     9 O5'         27.8940   -16.7460     7.5590 O.3          1 ADP1332   0.0000
    10 C5'         27.8340   -17.7700     6.5730 C.3          1 ADP1332   0.0000
    11 C4'         29.0190   -18.7100     6.7420 C.3          1 ADP1332   0.0000
    12 O4'         28.6180   -20.0550     6.4940 O.3          1 ADP1332   0.0000
    13 C3'         30.1280   -18.3980     5.7550 C.3          1 ADP1332   0.0000
    14 O3'         31.2730   -17.9150     6.4550 O.3          1 ADP1332   0.0000
    15 C2'         30.4710   -19.7050     5.0820 C.3          1 ADP1332   0.0000
    16 O2'         31.8620   -19.9770     5.2390 O.3          1 ADP1332   0.0000
    17 C1'         29.6610   -20.7520     5.8160 C.3          1 ADP1332   0.0000
    18 N9          29.1040   -21.7310     4.8560 N.pl3        1 ADP1332   0.0000
    19 C8          28.4160   -21.4380     3.7410 C.2          1 ADP1332   0.0000
    20 N7          28.0460   -22.5650     3.0870 N.2          1 ADP1332   0.0000
    21 C5          28.5070   -23.6090     3.7920 C.ar         1 ADP1332   0.0000
    22 C6          28.4700   -25.0790     3.6630 C.ar         1 ADP1332   0.0000
    23 N6          27.8500   -25.6740     2.6190 N.pl3        1 ADP1332   0.0000
    24 N1          29.0740   -25.8090     4.6220 N.ar         1 ADP1332   0.0000
    25 C2          29.6940   -25.2330     5.6640 C.ar         1 ADP1332   0.0000
    26 N3          29.7660   -23.9060     5.8440 N.ar         1 ADP1332   0.0000
    27 C4          29.2030   -23.0550     4.9570 C.ar         1 ADP1332   0.0000
    28 H5'1        27.8633   -17.3576     5.6625 H            1 ADP1332   0.0000
    29 H5'2        26.9831   -18.2846     6.6787 H            1 ADP1332   0.0000
    30 H4'         29.3727   -18.6349     7.6743 H            1 ADP1332   0.0000
    31 H3'         29.8195   -17.7266     5.0812 H            1 ADP1332   0.0000
    32 H5          31.5887   -18.6121     7.0988 H            1 ADP1332   0.0000
    33 H2'         30.2225   -19.6802     4.1137 H            1 ADP1332   0.0000
    34 H7          32.0065   -20.5012     6.0782 H            1 ADP1332   0.0000
    35 H1'         30.2407   -21.2229     6.4810 H            1 ADP1332   0.0000
    36 H9          28.2046   -20.5101     3.4338 H            1 ADP1332   0.0000
    37 H10         27.8353   -26.6714     2.5486 H            1 ADP1332   0.0000
    38 H11         27.4062   -25.1166     1.9173 H            1 ADP1332   0.0000
    39 H12         30.1260   -25.8261     6.3435 H            1 ADP1332   0.0000
@<TRIPOS>BOND
     1    1    2      ar
     2    1    3      ar
     3    1    4      ar
     4    1    8       1
     5    5    6      ar
     6    5    7      ar
     7    5    8       1
     8    5    9       1
     9    9   10       1
    10   10   11       1
    11   11   12       1
    12   11   13       1
    13   12   17       1
    14   13   14       1
    15   13   15       1
    16   15   16       1
    17   15   17       1
    18   17   18       1
    19   18   19       1
    20   18   27       1
    21   19   20       2
    22   20   21       1
    23   21   22      ar
    24   21   27      ar
    25   22   23       1
    26   22   24      ar
    27   24   25      ar
    28   25   26      ar
    29   26   27      ar
    30   25   39       1
    31   23   38       1
    32   23   37       1
    33   10   28       1
    34   10   29       1
    35   11   30       1
    36   13   31       1
    37   14   32       1
    38   15   33       1
    39   16   34       1
    40   17   35       1
    41   19   36       1
@<TRIPOS>SUBSTRUCTURE
     1 ADP1332     1 GROUP             4 D     ADP     0 **** ADP D1332
