@<TRIPOS>MOLECULE
2xtb_KRM_1_ligand
   43    46     1     0     0
SMALL
NO_CHARGES


@<TRIPOS>ATOM
     1 C24         13.2500   -26.0330     4.7800 C.3          1 KRM1344   0.0000
     2 C23         11.8670   -26.6100     4.5050 C.3          1 KRM1344   0.0000
     3 O22         11.9190   -27.3930     3.3130 O.3          1 KRM1344   0.0000
     4 C21         12.7040   -28.5710     3.5000 C.3          1 KRM1344   0.0000
     5 C20         14.1660   -28.2000     3.7530 C.3          1 KRM1344   0.0000
     6 N19         14.2320   -27.1230     4.7520 N.pl3        1 KRM1344   0.0000
     7 C16         15.2620   -27.0810     5.6690 C.2          1 KRM1344   0.0000
     8 C15         16.4520   -27.7860     5.5660 C.2          1 KRM1344   0.0000
     9 N17         15.1970   -26.3050     6.7480 N.pl3        1 KRM1344   0.0000
    10 N18         16.4150   -26.5220     7.4090 N.2          1 KRM1344   0.0000
    11 C14         17.1690   -27.4070     6.7040 C.2          1 KRM1344   0.0000
    12 C11         18.5320   -27.8610     7.1220 C.ar         1 KRM1344   0.0000
    13 C10         19.3060   -28.6950     6.3100 C.ar         1 KRM1344   0.0000
    14 C9          20.5770   -29.1000     6.7300 C.ar         1 KRM1344   0.0000
    15 C12         19.0420   -27.4350     8.3510 C.ar         1 KRM1344   0.0000
    16 C13         20.3100   -27.8390     8.7700 C.ar         1 KRM1344   0.0000
    17 C8          21.0840   -28.6760     7.9650 C.ar         1 KRM1344   0.0000
    18 O7          22.3340   -29.0500     8.4120 O.3          1 KRM1344   0.0000
    19 C6          22.9950   -30.1930     8.0120 C.ar         1 KRM1344   0.0000
    20 C1          24.0470   -30.1060     7.0940 C.ar         1 KRM1344   0.0000
    21 C5          22.6350   -31.4410     8.5290 C.ar         1 KRM1344   0.0000
    22 C4          23.3160   -32.5930     8.1200 C.ar         1 KRM1344   0.0000
    23 C3          24.3610   -32.5030     7.1980 C.ar         1 KRM1344   0.0000
    24 C2          24.7280   -31.2570     6.6840 C.ar         1 KRM1344   0.0000
    25 H1          13.2589   -25.5958     5.6793 H            1 KRM1344   0.0000
    26 H2          13.4778   -25.3575     4.0787 H            1 KRM1344   0.0000
    27 H3          11.2100   -25.8651     4.3885 H            1 KRM1344   0.0000
    28 H4          11.5853   -27.1859     5.2724 H            1 KRM1344   0.0000
    29 H5          12.6453   -29.1402     2.6799 H            1 KRM1344   0.0000
    30 H6          12.3523   -29.0806     4.2853 H            1 KRM1344   0.0000
    31 H7          14.5836   -27.8889     2.8993 H            1 KRM1344   0.0000
    32 H8          14.6592   -29.0008     4.0929 H            1 KRM1344   0.0000
    33 H9          16.7321   -28.4191     4.8443 H            1 KRM1344   0.0000
    34 H10         18.9503   -29.0025     5.4274 H            1 KRM1344   0.0000
    35 H11         21.1272   -29.6959     6.1451 H            1 KRM1344   0.0000
    36 H12         18.4940   -26.8359     8.9348 H            1 KRM1344   0.0000
    37 H13         20.6658   -27.5274     9.6511 H            1 KRM1344   0.0000
    38 H14         24.3141   -29.2145     6.7282 H            1 KRM1344   0.0000
    39 H15         21.8897   -31.5106     9.1921 H            1 KRM1344   0.0000
    40 H16         23.0533   -33.4843     8.4895 H            1 KRM1344   0.0000
    41 H17         24.8451   -33.3280     6.9066 H            1 KRM1344   0.0000
    42 H18         25.4762   -31.1880     6.0241 H            1 KRM1344   0.0000
    43 H19         14.4484   -25.7027     7.0252 H            1 KRM1344   0.0000
@<TRIPOS>BOND
     1    1    2       1
     2    1    6       1
     3    2    3       1
     4    3    4       1
     5    4    5       1
     6    5    6       1
     7    6    7       1
     8    7    8       2
     9    7    9       1
    10    8   11       1
    11    9   10       1
    12   10   11       2
    13   11   12       1
    14   12   13      ar
    15   12   15      ar
    16   13   14      ar
    17   14   17      ar
    18   15   16      ar
    19   16   17      ar
    20   17   18       1
    21   18   19       1
    22   19   20      ar
    23   19   21      ar
    24   20   24      ar
    25   21   22      ar
    26   22   23      ar
    27   23   24      ar
    28    1   25       1
    29    1   26       1
    30    2   27       1
    31    2   28       1
    32    4   29       1
    33    4   30       1
    34    5   31       1
    35    5   32       1
    36    8   33       1
    37    9   43       1
    38   13   34       1
    39   14   35       1
    40   15   36       1
    41   16   37       1
    42   20   38       1
    43   21   39       1
    44   22   40       1
    45   23   41       1
    46   24   42       1
@<TRIPOS>SUBSTRUCTURE
     1 KRM1344     1 GROUP             4 A     KRM     0 **** KRM A1344
