@<TRIPOS>MOLECULE
1ci0_FMN_2_ligand
   50    52     1     0     0
SMALL
NO_CHARGES


@<TRIPOS>ATOM
     1 N1         -42.3320     5.7640     1.2980 N.2          1 FMN300   0.0000
     2 C2         -43.3890     6.6110     1.2160 C.2          1 FMN300   0.0000
     3 O2         -43.4300     7.6740     1.7590 O.2          1 FMN300   0.0000
     4 N3         -44.5250     6.2230     0.4350 N.pl3        1 FMN300   0.0000
     5 C4         -44.6470     5.0540    -0.2480 C.2          1 FMN300   0.0000
     6 O4         -45.6720     4.8000    -0.9060 O.2          1 FMN300   0.0000
     7 C4A        -43.5040     4.1480    -0.1580 C.2          1 FMN300   0.0000
     8 N5         -43.5140     2.9830    -0.7940 N.2          1 FMN300   0.0000
     9 C5A        -42.4240     2.1720    -0.7010 C.ar         1 FMN300   0.0000
    10 C6         -42.4120     0.9010    -1.4010 C.ar         1 FMN300   0.0000
    11 C7         -41.3720     0.0340    -1.3730 C.ar         1 FMN300   0.0000
    12 C7M        -41.3930    -1.2970    -2.1350 C.3          1 FMN300   0.0000
    13 C8         -40.1600     0.3880    -0.6050 C.ar         1 FMN300   0.0000
    14 C8M        -38.9650    -0.5320    -0.5460 C.3          1 FMN300   0.0000
    15 C9         -40.1580     1.5910     0.0840 C.ar         1 FMN300   0.0000
    16 C9A        -41.2420     2.5010     0.0660 C.ar         1 FMN300   0.0000
    17 N10        -41.2810     3.7600     0.7400 N.pl3        1 FMN300   0.0000
    18 C10        -42.3530     4.6060     0.6610 C.2          1 FMN300   0.0000
    19 C1'        -40.1450     4.1990     1.5590 C.3          1 FMN300   0.0000
    20 C2'        -39.1590     5.0440     0.7810 C.3          1 FMN300   0.0000
    21 O2'        -38.5610     4.3520    -0.2990 O.3          1 FMN300   0.0000
    22 C3'        -38.0080     5.4860     1.6650 C.3          1 FMN300   0.0000
    23 O3'        -38.2540     5.1840     3.0800 O.3          1 FMN300   0.0000
    24 C4'        -37.6950     6.9320     1.5240 C.3          1 FMN300   0.0000
    25 O4'        -36.5870     7.1910     2.4000 O.3          1 FMN300   0.0000
    26 C5'        -38.8040     7.8860     1.9190 C.3          1 FMN300   0.0000
    27 O5'        -38.4210     9.2960     1.7320 O.3          1 FMN300   0.0000
    28 P          -36.9410     9.9860     1.8680 P.3          1 FMN300   0.0000
    29 O1P        -36.0280     9.4740     0.7950 O.co2        1 FMN300   0.0000
    30 O2P        -36.4040     9.7220     3.2480 O.co2        1 FMN300  -1.0000
    31 O3P        -37.2360    11.5030     1.5590 O.co2        1 FMN300  -1.0000
    32 H1         -45.2909     6.8643     0.3883 H            1 FMN300   0.0000
    33 H2         -43.2192     0.6505    -1.9355 H            1 FMN300   0.0000
    34 H7M1       -40.5326    -1.7828    -1.9811 H            1 FMN300   0.0000
    35 H7M2       -42.1547    -1.8563    -1.8080 H            1 FMN300   0.0000
    36 H7M3       -41.5054    -1.1196    -3.1127 H            1 FMN300   0.0000
    37 H8M1       -38.2523    -0.1169     0.0195 H            1 FMN300   0.0000
    38 H8M2       -39.2380    -1.4080    -0.1483 H            1 FMN300   0.0000
    39 H8M3       -38.6129    -0.6807    -1.4701 H            1 FMN300   0.0000
    40 H9         -39.3488     1.8281     0.6216 H            1 FMN300   0.0000
    41 H1'1       -39.6697     3.3909     1.9069 H            1 FMN300   0.0000
    42 H1'2       -40.4926     4.7375     2.3266 H            1 FMN300   0.0000
    43 H2'        -39.6295     5.8533     0.4293 H            1 FMN300   0.0000
    44 H13        -39.2706     4.0524    -0.9367 H            1 FMN300   0.0000
    45 H3'        -37.1971     4.9729     1.3835 H            1 FMN300   0.0000
    46 H15        -37.4745     5.4901     3.6266 H            1 FMN300   0.0000
    47 H4'        -37.4200     7.1190     0.5809 H            1 FMN300   0.0000
    48 H17        -36.6344     8.1347     2.7273 H            1 FMN300   0.0000
    49 H5'1       -39.0273     7.7384     2.8825 H            1 FMN300   0.0000
    50 H5'2       -39.6087     7.6941     1.3572 H            1 FMN300   0.0000
@<TRIPOS>BOND
     1    1    2       1
     2    1   18       2
     3    2    3       2
     4    2    4       1
     5    4    5       1
     6    5    6       2
     7    5    7       1
     8    7    8       2
     9    7   18       1
    10    8    9       1
    11    9   10      ar
    12    9   16      ar
    13   10   11      ar
    14   11   12       1
    15   11   13      ar
    16   13   14       1
    17   13   15      ar
    18   15   16      ar
    19   16   17       1
    20   17   18       1
    21   17   19       1
    22   19   20       1
    23   20   21       1
    24   20   22       1
    25   22   23       1
    26   22   24       1
    27   24   25       1
    28   24   26       1
    29   26   27       1
    30   27   28       1
    31   28   29      ar
    32   28   30      ar
    33   28   31      ar
    34    4   32       1
    35   10   33       1
    36   12   34       1
    37   12   35       1
    38   12   36       1
    39   14   37       1
    40   14   38       1
    41   14   39       1
    42   15   40       1
    43   19   41       1
    44   19   42       1
    45   20   43       1
    46   21   44       1
    47   22   45       1
    48   23   46       1
    49   24   47       1
    50   25   48       1
    51   26   49       1
    52   26   50       1
@<TRIPOS>SUBSTRUCTURE
     1 FMN300      1 GROUP             4 B     FMN     0 **** FMN B 300
