@<TRIPOS>MOLECULE
1gwj_FMN_1_ligand
   50    52     1     0     0
SMALL
NO_CHARGES


@<TRIPOS>ATOM
     1 N1          15.0490    50.7870    24.0360 N.2          1 FMN401   0.0000
     2 C2          15.9680    51.7720    23.8140 C.2          1 FMN401   0.0000
     3 O2          17.1490    51.6330    23.9610 O.2          1 FMN401   0.0000
     4 N3          15.5020    53.0390    23.4010 N.pl3        1 FMN401   0.0000
     5 C4          14.1980    53.3690    23.2170 C.2          1 FMN401   0.0000
     6 O4          13.8940    54.5100    22.8130 O.2          1 FMN401   0.0000
     7 C4A         13.2030    52.2800    23.4250 C.2          1 FMN401   0.0000
     8 N5          11.8810    52.4900    23.2260 N.2          1 FMN401   0.0000
     9 C5A         10.9630    51.5000    23.5200 C.ar         1 FMN401   0.0000
    10 C6           9.5190    51.8480    23.3290 C.ar         1 FMN401   0.0000
    11 C7           8.5640    50.8390    23.6250 C.ar         1 FMN401   0.0000
    12 C7M          7.0740    51.1470    23.4900 C.3          1 FMN401   0.0000
    13 C8           8.9720    49.4780    24.1510 C.ar         1 FMN401   0.0000
    14 C8M          8.0440    48.4810    24.5110 C.3          1 FMN401   0.0000
    15 C9          10.3540    49.2610    24.2960 C.ar         1 FMN401   0.0000
    16 C9A         11.3510    50.2080    24.0080 C.ar         1 FMN401   0.0000
    17 N10         12.7730    49.9940    24.1700 N.pl3        1 FMN401   0.0000
    18 C10         13.7340    50.9870    23.8590 C.2          1 FMN401   0.0000
    19 C1'         13.2430    48.6990    24.7560 C.3          1 FMN401   0.0000
    20 C2'         13.2360    48.7970    26.2680 C.3          1 FMN401   0.0000
    21 O2'         14.1230    49.7840    26.7350 O.3          1 FMN401   0.0000
    22 C3'         13.5820    47.4740    26.9890 C.3          1 FMN401   0.0000
    23 O3'         14.9970    47.1920    26.8210 O.3          1 FMN401   0.0000
    24 C4'         12.7230    46.3070    26.5960 C.3          1 FMN401   0.0000
    25 O4'         11.3150    46.7040    26.7190 O.3          1 FMN401   0.0000
    26 C5'         12.9320    45.0680    27.4380 C.3          1 FMN401   0.0000
    27 O5'         12.5810    45.3220    28.8240 O.3          1 FMN401   0.0000
    28 P           11.1410    45.0710    29.4440 P.3          1 FMN401   0.0000
    29 O1P         10.1310    45.9640    28.7930 O.co2        1 FMN401   0.0000
    30 O2P         10.8440    43.5880    29.3440 O.co2        1 FMN401  -1.0000
    31 O3P         11.3300    45.4540    30.9340 O.co2        1 FMN401  -1.0000
    32 H1          16.1856    53.7487    23.2307 H            1 FMN401   0.0000
    33 H2           9.2390    52.7523    23.0068 H            1 FMN401   0.0000
    34 H7M1         6.5425    50.3358    23.7339 H            1 FMN401   0.0000
    35 H7M2         6.8325    51.9001    24.1020 H            1 FMN401   0.0000
    36 H7M3         6.8715    51.4067    22.5458 H            1 FMN401   0.0000
    37 H8M1         8.5336    47.6694    24.8298 H            1 FMN401   0.0000
    38 H8M2         7.4541    48.8231    25.2424 H            1 FMN401   0.0000
    39 H8M3         7.4856    48.2428    23.7164 H            1 FMN401   0.0000
    40 H9          10.6491    48.3655    24.6291 H            1 FMN401   0.0000
    41 H1'1        14.1717    48.5071    24.4387 H            1 FMN401   0.0000
    42 H1'2        12.6328    47.9613    24.4669 H            1 FMN401   0.0000
    43 H2'         12.3137    49.0621    26.5493 H            1 FMN401   0.0000
    44 H13         13.8579    50.6735    26.3628 H            1 FMN401   0.0000
    45 H3'         13.4315    47.6285    27.9655 H            1 FMN401   0.0000
    46 H15         15.1324    46.6476    25.9932 H            1 FMN401   0.0000
    47 H4'         12.9093    46.0798    25.6401 H            1 FMN401   0.0000
    48 H17         10.9897    46.4970    27.6417 H            1 FMN401   0.0000
    49 H5'1        13.8928    44.7955    27.3877 H            1 FMN401   0.0000
    50 H5'2        12.3573    44.3302    27.0841 H            1 FMN401   0.0000
@<TRIPOS>BOND
     1    1    2       1
     2    1   18       2
     3    2    3       2
     4    2    4       1
     5    4    5       1
     6    5    6       2
     7    5    7       1
     8    7    8       2
     9    7   18       1
    10    8    9       1
    11    9   10      ar
    12    9   16      ar
    13   10   11      ar
    14   11   12       1
    15   11   13      ar
    16   13   14       1
    17   13   15      ar
    18   15   16      ar
    19   16   17       1
    20   17   18       1
    21   17   19       1
    22   19   20       1
    23   20   21       1
    24   20   22       1
    25   22   23       1
    26   22   24       1
    27   24   25       1
    28   24   26       1
    29   26   27       1
    30   27   28       1
    31   28   29      ar
    32   28   30      ar
    33   28   31      ar
    34    4   32       1
    35   10   33       1
    36   12   34       1
    37   12   35       1
    38   12   36       1
    39   14   37       1
    40   14   38       1
    41   14   39       1
    42   15   40       1
    43   19   41       1
    44   19   42       1
    45   20   43       1
    46   21   44       1
    47   22   45       1
    48   23   46       1
    49   24   47       1
    50   25   48       1
    51   26   49       1
    52   26   50       1
@<TRIPOS>SUBSTRUCTURE
     1 FMN401      1 GROUP             4 A     FMN     0 **** FMN A 401
