@<TRIPOS>MOLECULE
3ck7_ACX_2_ligand
  126   132     1     0     0
SMALL
NO_CHARGES


@<TRIPOS>ATOM
     1 C1A          4.9730   -15.6070   102.9060 C.3          1 ACX689   0.0000
     2 C2A          4.0290   -15.7570   104.1250 C.3          1 ACX689   0.0000
     3 C3A          3.4870   -17.1880   104.2850 C.3          1 ACX689   0.0000
     4 C4A          3.3280   -17.9720   102.9400 C.3          1 ACX689   0.0000
     5 C5A          4.2290   -17.5160   101.7470 C.3          1 ACX689   0.0000
     6 C6A          3.8250   -18.1000   100.3780 C.3          1 ACX689   0.0000
     7 O1A          6.2440   -16.2470   103.0870 O.3          1 ACX689   0.0000
     8 O2A          4.6880   -15.3810   105.3210 O.3          1 ACX689   0.0000
     9 O3A          2.2320   -17.1480   104.9450 O.3          1 ACX689   0.0000
    10 O5A          4.2430   -16.0540   101.7320 O.3          1 ACX689   0.0000
    11 O6A          2.8930   -17.2830    99.7320 O.3          1 ACX689   0.0000
    12 C1B         10.2770   -15.0320   102.3230 C.3          1 ACX689   0.0000
    13 C2B          9.4030   -14.0730   103.1610 C.3          1 ACX689   0.0000
    14 C3B          8.1430   -14.7960   103.7350 C.3          1 ACX689   0.0000
    15 C4B          7.3300   -15.4480   102.5830 C.3          1 ACX689   0.0000
    16 C5B          8.2490   -16.3380   101.7040 C.3          1 ACX689   0.0000
    17 C6B          7.5680   -16.8750   100.4360 C.3          1 ACX689   0.0000
    18 O1B         10.8190   -16.0300   103.2010 O.3          1 ACX689   0.0000
    19 O2B         10.2080   -13.5250   104.2080 O.3          1 ACX689   0.0000
    20 O3B          7.3250   -13.8330   104.4120 O.3          1 ACX689   0.0000
    21 O5B          9.4440   -15.6210   101.2840 O.3          1 ACX689   0.0000
    22 O6B          8.4870   -17.6830    99.7100 O.3          1 ACX689   0.0000
    23 C1C         12.7890   -19.7180   102.6680 C.3          1 ACX689   0.0000
    24 C2C         13.1580   -18.8630   103.8900 C.3          1 ACX689   0.0000
    25 C3C         12.0320   -17.8410   104.1130 C.3          1 ACX689   0.0000
    26 C4C         11.9150   -16.9570   102.8680 C.3          1 ACX689   0.0000
    27 C5C         11.6340   -17.9000   101.6180 C.3          1 ACX689   0.0000
    28 C6C         11.6080   -17.1320   100.2890 C.3          1 ACX689   0.0000
    29 O1C         11.4830   -20.2970   102.9440 O.3          1 ACX689   0.0000
    30 O2C         13.2710   -19.7090   105.0290 O.3          1 ACX689   0.0000
    31 O3C         12.3240   -17.0170   105.2440 O.3          1 ACX689   0.0000
    32 O5C         12.6970   -18.8660   101.4800 O.3          1 ACX689   0.0000
    33 O6C         11.3420   -18.0360    99.2370 O.3          1 ACX689   0.0000
    34 C1D          9.4600   -23.9260   102.8770 C.3          1 ACX689   0.0000
    35 C2D         10.4460   -23.7200   104.0280 C.3          1 ACX689   0.0000
    36 C3D         10.8310   -22.2430   104.1690 C.3          1 ACX689   0.0000
    37 C4D         11.4080   -21.7160   102.8420 C.3          1 ACX689   0.0000
    38 C5D         10.5210   -22.0120   101.6060 C.3          1 ACX689   0.0000
    39 C6D         11.2860   -21.7740   100.2940 C.3          1 ACX689   0.0000
    40 O1D          8.1690   -23.3780   103.1000 O.3          1 ACX689   0.0000
    41 O2D          9.8450   -24.2140   105.2290 O.3          1 ACX689   0.0000
    42 O3D         11.8110   -22.0840   105.1930 O.3          1 ACX689   0.0000
    43 O5D         10.0200   -23.3870   101.6370 O.3          1 ACX689   0.0000
    44 O6D         10.4350   -22.0400    99.2090 O.3          1 ACX689   0.0000
    45 C1E          4.1470   -24.4890   102.4410 C.3          1 ACX689   0.0000
    46 C2E          4.9950   -25.4410   103.3110 C.3          1 ACX689   0.0000
    47 C3E          6.2840   -24.7310   103.7950 C.3          1 ACX689   0.0000
    48 C4E          7.0910   -24.1610   102.5890 C.3          1 ACX689   0.0000
    49 C5E          6.1700   -23.3240   101.6710 C.3          1 ACX689   0.0000
    50 C6E          6.8480   -22.9110   100.3610 C.3          1 ACX689   0.0000
    51 O1E          3.7120   -23.3720   103.2380 O.3          1 ACX689   0.0000
    52 O2E          4.2320   -25.8790   104.4260 O.3          1 ACX689   0.0000
    53 O3E          7.0890   -25.6670   104.5050 O.3          1 ACX689   0.0000
    54 O5E          4.9540   -24.0420   101.3260 O.3          1 ACX689   0.0000
    55 O6E          6.3060   -21.6830    99.9460 O.3          1 ACX689   0.0000
    56 C1F          1.8340   -19.8230   102.7880 C.3          1 ACX689   0.0000
    57 C2F          1.2590   -20.6610   103.9260 C.3          1 ACX689   0.0000
    58 C3F          2.1350   -21.9060   104.1580 C.3          1 ACX689   0.0000
    59 C4F          2.4870   -22.6950   102.8550 C.3          1 ACX689   0.0000
    60 C5F          2.7600   -21.7480   101.6060 C.3          1 ACX689   0.0000
    61 C6F          2.6560   -22.4310   100.2360 C.3          1 ACX689   0.0000
    62 O1F          3.1800   -19.3730   103.0680 O.3          1 ACX689   0.0000
    63 O2F          1.2270   -19.8460   105.0960 O.3          1 ACX689   0.0000
    64 O3F          1.4610   -22.7600   105.0750 O.3          1 ACX689   0.0000
    65 O5F          1.8550   -20.6170   101.6060 O.3          1 ACX689   0.0000
    66 O6F          2.9530   -21.4890    99.2310 O.3          1 ACX689   0.0000
    67 H1A          5.1494   -14.6297   102.7887 H            1 ACX689   0.0000
    68 H2A          3.2508   -15.1430   103.9928 H            1 ACX689   0.0000
    69 H3A          4.1241   -17.6960   104.8646 H            1 ACX689   0.0000
    70 H4A          2.4176   -17.6900   102.6372 H            1 ACX689   0.0000
    71 H5A          5.1609   -17.8228   101.9407 H            1 ACX689   0.0000
    72 H6A1         3.4240   -19.0056   100.5158 H            1 ACX689   0.0000
    73 H6A2         4.6404   -18.1802    99.8047 H            1 ACX689   0.0000
    74 H8           4.0198   -15.0153   105.9689 H            1 ACX689   0.0000
    75 H9           1.8801   -18.0783   105.0488 H            1 ACX689   0.0000
    76 H6A          3.2888   -16.3763    99.5865 H            1 ACX689   0.0000
    77 H1B         11.0240   -14.5188   101.9003 H            1 ACX689   0.0000
    78 H2B          9.0981   -13.3252   102.5713 H            1 ACX689   0.0000
    79 H3B          8.4301   -15.5027   104.3817 H            1 ACX689   0.0000
    80 H4B          6.9505   -14.7209   102.0109 H            1 ACX689   0.0000
    81 H5B          8.5372   -17.1216   102.2544 H            1 ACX689   0.0000
    82 H6B1         7.2749   -16.1083    99.8649 H            1 ACX689   0.0000
    83 H6B2         6.7719   -17.4234   100.6920 H            1 ACX689   0.0000
    84 H18         11.1588   -13.4695   103.9032 H            1 ACX689   0.0000
    85 H19          6.5148   -14.2863   104.7836 H            1 ACX689   0.0000
    86 H6B          8.4119   -18.6316   100.0174 H            1 ACX689   0.0000
    87 H1C         13.4679   -20.4389   102.5287 H            1 ACX689   0.0000
    88 H2C         14.0236   -18.3892   103.7279 H            1 ACX689   0.0000
    89 H3C         11.1685   -18.3223   104.2638 H            1 ACX689   0.0000
    90 H4C         12.7641   -16.4475   102.7287 H            1 ACX689   0.0000
    91 H5C         10.7639   -18.3759   101.7466 H            1 ACX689   0.0000
    92 H6C1        12.4943   -16.6942   100.1380 H            1 ACX689   0.0000
    93 H6C2        10.8924   -16.4342   100.3196 H            1 ACX689   0.0000
    94 H28         12.6548   -20.4899   104.9267 H            1 ACX689   0.0000
    95 H29         12.4109   -17.5890   106.0596 H            1 ACX689   0.0000
    96 H6C         10.3544   -18.0992    99.0936 H            1 ACX689   0.0000
    97 H1D          9.3488   -24.9118   102.7513 H            1 ACX689   0.0000
    98 H2D         11.2727   -24.2507   103.8411 H            1 ACX689   0.0000
    99 H3D         10.0175   -21.7126   104.4074 H            1 ACX689   0.0000
   100 H4D         12.3231   -22.0928   102.6986 H            1 ACX689   0.0000
   101 H5D          9.7365   -21.3923   101.6279 H            1 ACX689   0.0000
   102 H6D1        12.0790   -22.3820   100.2541 H            1 ACX689   0.0000
   103 H6D2        11.5927   -20.8231   100.2533 H            1 ACX689   0.0000
   104 H38         10.5581   -24.5455   105.8467 H            1 ACX689   0.0000
   105 H39         12.6264   -22.6135   104.9591 H            1 ACX689   0.0000
   106 H6D         10.5138   -23.0032    98.9519 H            1 ACX689   0.0000
   107 H1E          3.3476   -24.9803   102.0952 H            1 ACX689   0.0000
   108 H2E          5.2514   -26.2370   102.7627 H            1 ACX689   0.0000
   109 H3E          6.0353   -23.9807   104.4076 H            1 ACX689   0.0000
   110 H4E          7.4665   -24.9234   102.0619 H            1 ACX689   0.0000
   111 H5E          5.9117   -22.4928   102.1634 H            1 ACX689   0.0000
   112 H6E1         6.6823   -23.6063    99.6617 H            1 ACX689   0.0000
   113 H6E2         7.8324   -22.8130   100.5070 H            1 ACX689   0.0000
   114 H48          3.2636   -25.9047   104.1778 H            1 ACX689   0.0000
   115 H49          7.9238   -25.2163   104.8212 H            1 ACX689   0.0000
   116 H6E          5.3214   -21.7844    99.8034 H            1 ACX689   0.0000
   117 H1F          1.2470   -19.0274   102.6379 H            1 ACX689   0.0000
   118 H2F          0.3293   -20.9463   103.6930 H            1 ACX689   0.0000
   119 H3F          2.9907   -21.6090   104.5818 H            1 ACX689   0.0000
   120 H4F          1.7704   -23.3592   102.6422 H            1 ACX689   0.0000
   121 H5F          3.6897   -21.3908   101.6955 H            1 ACX689   0.0000
   122 H6F1         1.7282   -22.7801   100.1048 H            1 ACX689   0.0000
   123 H6F2         3.3070   -23.1886   100.1886 H            1 ACX689   0.0000
   124 H58          1.7884   -20.2651   105.8096 H            1 ACX689   0.0000
   125 H59          1.2888   -23.6447   104.6418 H            1 ACX689   0.0000
   126 H6F          2.8874   -21.9265    98.3342 H            1 ACX689   0.0000
@<TRIPOS>BOND
     1    1    2       1
     2    1    7       1
     3    1   10       1
     4    2    3       1
     5    2    8       1
     6    3    4       1
     7    3    9       1
     8    4    5       1
     9    4   62       1
    10    5    6       1
    11    5   10       1
    12    6   11       1
    13    7   15       1
    14   12   13       1
    15   12   18       1
    16   12   21       1
    17   13   14       1
    18   13   19       1
    19   14   15       1
    20   14   20       1
    21   15   16       1
    22   16   17       1
    23   16   21       1
    24   17   22       1
    25   18   26       1
    26   23   24       1
    27   23   29       1
    28   23   32       1
    29   24   25       1
    30   24   30       1
    31   25   26       1
    32   25   31       1
    33   26   27       1
    34   27   28       1
    35   27   32       1
    36   28   33       1
    37   29   37       1
    38   34   35       1
    39   34   40       1
    40   34   43       1
    41   35   36       1
    42   35   41       1
    43   36   37       1
    44   36   42       1
    45   37   38       1
    46   38   39       1
    47   38   43       1
    48   39   44       1
    49   40   48       1
    50   45   46       1
    51   45   51       1
    52   45   54       1
    53   46   47       1
    54   46   52       1
    55   47   48       1
    56   47   53       1
    57   48   49       1
    58   49   50       1
    59   49   54       1
    60   50   55       1
    61   51   59       1
    62   56   57       1
    63   56   62       1
    64   56   65       1
    65   57   58       1
    66   57   63       1
    67   58   59       1
    68   58   64       1
    69   59   60       1
    70   60   61       1
    71   60   65       1
    72   61   66       1
    73    1   67       1
    74    2   68       1
    75    3   69       1
    76    4   70       1
    77    5   71       1
    78    6   72       1
    79    6   73       1
    80    8   74       1
    81    9   75       1
    82   11   76       1
    83   12   77       1
    84   13   78       1
    85   14   79       1
    86   15   80       1
    87   16   81       1
    88   17   82       1
    89   17   83       1
    90   19   84       1
    91   20   85       1
    92   22   86       1
    93   23   87       1
    94   24   88       1
    95   25   89       1
    96   26   90       1
    97   27   91       1
    98   28   92       1
    99   28   93       1
   100   30   94       1
   101   31   95       1
   102   33   96       1
   103   34   97       1
   104   35   98       1
   105   36   99       1
   106   37  100       1
   107   38  101       1
   108   39  102       1
   109   39  103       1
   110   41  104       1
   111   42  105       1
   112   44  106       1
   113   45  107       1
   114   46  108       1
   115   47  109       1
   116   48  110       1
   117   49  111       1
   118   50  112       1
   119   50  113       1
   120   52  114       1
   121   53  115       1
   122   55  116       1
   123   56  117       1
   124   57  118       1
   125   58  119       1
   126   59  120       1
   127   60  121       1
   128   61  122       1
   129   61  123       1
   130   63  124       1
   131   64  125       1
   132   66  126       1
@<TRIPOS>SUBSTRUCTURE
     1 ACX689      1 GROUP             4 C     ACX     0 **** ACX C 689
