@<TRIPOS>MOLECULE
2pmn_K51_1_ligand
   43    45     1     0     0
SMALL
NO_CHARGES


@<TRIPOS>ATOM
     1 N4          -7.0100   -30.4760   -16.1160 N.1          1 K51344   0.0000
     2 C13         -7.9230   -31.1730   -16.2920 C.1          1 K51344   0.0000
     3 C10         -8.9790   -31.8490   -16.5670 C.ar         1 K51344   0.0000
     4 C11         -9.4110   -32.8210   -15.6750 C.ar         1 K51344   0.0000
     5 C12        -10.5550   -33.5620   -15.9570 C.ar         1 K51344   0.0000
     6 C7         -11.2670   -33.3570   -17.1340 C.ar         1 K51344   0.0000
     7 C8         -10.8380   -32.3600   -18.0180 C.ar         1 K51344   0.0000
     8 C9          -9.6870   -31.6160   -17.7470 C.ar         1 K51344   0.0000
     9 C5         -12.5240   -34.1400   -17.3490 C.2          1 K51344   0.0000
    10 C6         -13.3780   -34.6890   -16.4170 C.2          1 K51344   0.0000
    11 N3         -14.4000   -35.2280   -17.1240 N.2          1 K51344   0.0000
    12 C1         -14.1990   -35.0000   -18.4390 C.2          1 K51344   0.0000
    13 C2         -14.9340   -35.3330   -19.5640 C.2          1 K51344   0.0000
    14 C3         -14.4630   -34.9530   -20.8060 C.2          1 K51344   0.0000
    15 C4         -13.2690   -34.2420   -20.9150 C.2          1 K51344   0.0000
    16 N1         -12.5660   -33.9250   -19.8050 N.2          1 K51344   0.0000
    17 N2         -13.0600   -34.3250   -18.5620 N.pl3        1 K51344   0.0000
    18 N5         -12.8200   -33.8650   -22.1300 N.pl3        1 K51344   0.0000
    19 C14        -11.4320   -33.5160   -22.3460 C.3          1 K51344   0.0000
    20 C15        -11.2480   -31.9960   -22.2590 C.3          1 K51344   0.0000
    21 O1         -12.1630   -31.2950   -23.1080 O.3          1 K51344   0.0000
    22 C16        -10.9960   -34.1700   -23.6610 C.3          1 K51344   0.0000
    23 C17        -10.4040   -35.5350   -23.3420 C.3          1 K51344   0.0000
    24 C18        -10.0290   -33.3520   -24.5180 C.3          1 K51344   0.0000
    25 H1          -8.9011   -32.9885   -14.8312 H            1 K51344   0.0000
    26 H2         -10.8693   -34.2513   -15.3043 H            1 K51344   0.0000
    27 H3         -11.3603   -32.1786   -18.8513 H            1 K51344   0.0000
    28 H4          -9.3726   -30.9213   -18.3940 H            1 K51344   0.0000
    29 H5         -13.2662   -34.6894   -15.4233 H            1 K51344   0.0000
    30 H6         -15.7916   -35.8402   -19.4790 H            1 K51344   0.0000
    31 H7         -14.9800   -35.1886   -21.6289 H            1 K51344   0.0000
    32 H8         -13.4597   -33.8258   -22.8977 H            1 K51344   0.0000
    33 H9         -10.8968   -33.9293   -21.6093 H            1 K51344   0.0000
    34 H10        -10.3138   -31.7678   -22.5332 H            1 K51344   0.0000
    35 H11        -11.3982   -31.7063   -21.3137 H            1 K51344   0.0000
    36 H12        -12.3723   -30.4028   -22.7078 H            1 K51344   0.0000
    37 H13        -11.8207   -34.3228   -24.2056 H            1 K51344   0.0000
    38 H14        -10.1129   -35.9785   -24.1897 H            1 K51344   0.0000
    39 H15         -9.6159   -35.4233   -22.7366 H            1 K51344   0.0000
    40 H16        -11.0941   -36.1003   -22.8900 H            1 K51344   0.0000
    41 H17         -9.8067   -33.8621   -25.3489 H            1 K51344   0.0000
    42 H18        -10.4565   -32.4824   -24.7651 H            1 K51344   0.0000
    43 H19         -9.1915   -33.1766   -24.0004 H            1 K51344   0.0000
@<TRIPOS>BOND
     1    1    2       3
     2    2    3       1
     3    3    4      ar
     4    3    8      ar
     5    4    5      ar
     6    5    6      ar
     7    6    7      ar
     8    6    9       1
     9    7    8      ar
    10    9   10       2
    11    9   17       1
    12   10   11       1
    13   11   12       2
    14   12   13       1
    15   12   17       1
    16   13   14       2
    17   14   15       1
    18   15   16       2
    19   15   18       1
    20   16   17       1
    21   18   19       1
    22   19   20       1
    23   19   22       1
    24   20   21       1
    25   22   23       1
    26   22   24       1
    27    4   25       1
    28    5   26       1
    29    7   27       1
    30    8   28       1
    31   10   29       1
    32   13   30       1
    33   14   31       1
    34   18   32       1
    35   19   33       1
    36   20   34       1
    37   20   35       1
    38   21   36       1
    39   22   37       1
    40   23   38       1
    41   23   39       1
    42   23   40       1
    43   24   41       1
    44   24   42       1
    45   24   43       1
@<TRIPOS>SUBSTRUCTURE
     1 K51344      1 GROUP             4 X     K51     0 **** K51 X 344
