@<TRIPOS>MOLECULE
3et7_349_1_ligand
   60    64     1     0     0
SMALL
NO_CHARGES


@<TRIPOS>ATOM
     1 O32         21.5830    66.1030    21.8780 O.2          1 349999   0.0000
     2 S30         21.3840    65.2620    20.7320 S.o2         1 349999   0.0000
     3 O31         20.8370    65.5760    19.4620 O.2          1 349999   0.0000
     4 N33         20.5480    63.8960    21.3040 N.3          1 349999   0.0000
     5 C34         20.5270    63.3990    22.7220 C.3          1 349999   0.0000
     6 C35         19.2590    62.4560    22.8440 C.3          1 349999   0.0000
     7 C36         19.0590    61.9040    21.4120 C.3          1 349999   0.0000
     8 C37         19.5810    63.0670    20.5130 C.3          1 349999   0.0000
     9 C29         23.0160    64.6640    20.4240 C.ar         1 349999   0.0000
    10 C28         23.2960    63.2900    20.7100 C.ar         1 349999   0.0000
    11 C27         24.5630    62.8190    20.5020 C.ar         1 349999   0.0000
    12 C26         25.4990    63.7790    20.0650 C.ar         1 349999   0.0000
    13 C25         25.2630    65.1280    19.7900 C.ar         1 349999   0.0000
    14 C24         23.9640    65.6060    19.9680 C.ar         1 349999   0.0000
    15 C23         23.5770    67.0580    19.7320 C.3          1 349999   0.0000
    16 N22         24.8870    67.7350    19.4920 N.pl3        1 349999   0.0000
    17 C21         25.3060    68.1770    18.2340 C.ar         1 349999   0.0000
    18 N20         24.6050    67.8560    17.1570 N.ar         1 349999   0.0000
    19 C8          25.0440    68.3070    15.9780 C.ar         1 349999   0.0000
    20 N7          26.0750    69.1450    15.7700 N.ar         1 349999   0.0000
    21 C6          26.8320    69.4800    16.8270 C.ar         1 349999   0.0000
    22 C5          26.4300    68.9500    18.0450 C.ar         1 349999   0.0000
    23 C2          27.2140    69.2640    19.2410 C.3          1 349999   0.0000
    24 F4          26.3410    69.8890    20.1270 F            1 349999   0.0000
    25 F3          27.6710    68.1240    19.9250 F            1 349999   0.0000
    26 F1          28.3560    69.8960    18.7630 F            1 349999   0.0000
    27 N9          24.2300    67.9690    14.9630 N.pl3        1 349999   0.0000
    28 C10         23.1360    67.0770    15.2160 C.ar         1 349999   0.0000
    29 C11         23.0750    66.3970    16.3790 C.ar         1 349999   0.0000
    30 C12         22.0130    65.5240    16.5170 C.ar         1 349999   0.0000
    31 C13         20.9940    65.2960    15.6410 C.ar         1 349999   0.0000
    32 N14         19.8580    64.4620    15.7070 N.am         1 349999   0.0000
    33 C18         21.0750    65.9850    14.4420 C.ar         1 349999   0.0000
    34 C19         22.1170    66.8650    14.2450 C.ar         1 349999   0.0000
    35 C17         19.8840    65.5810    13.5620 C.3          1 349999   0.0000
    36 C15         19.1630    64.5920    14.4910 C.2          1 349999   0.0000
    37 O16         18.1410    64.0210    14.1200 O.2          1 349999   0.0000
    38 H1          20.4494    64.1675    23.3572 H            1 349999   0.0000
    39 H2          21.3613    62.8849    22.9211 H            1 349999   0.0000
    40 H3          18.4573    62.9758    23.1392 H            1 349999   0.0000
    41 H4          19.4306    61.7124    23.4902 H            1 349999   0.0000
    42 H5          18.0939    61.7150    21.2310 H            1 349999   0.0000
    43 H6          19.5942    61.0714    21.2696 H            1 349999   0.0000
    44 H7          20.0414    62.6895    19.7096 H            1 349999   0.0000
    45 H8          18.8124    63.6358    20.2202 H            1 349999   0.0000
    46 H9          22.5784    62.6854    21.0556 H            1 349999   0.0000
    47 H10         24.8085    61.8609    20.6495 H            1 349999   0.0000
    48 H11         26.4374    63.4578    19.9376 H            1 349999   0.0000
    49 H12         25.9981    65.7294    19.4770 H            1 349999   0.0000
    50 H13         23.1189    67.4405    20.5344 H            1 349999   0.0000
    51 H14         22.9794    67.1434    18.9347 H            1 349999   0.0000
    52 H15         25.4958    67.8794    20.2721 H            1 349999   0.0000
    53 H16         27.6330    70.0726    16.7422 H            1 349999   0.0000
    54 H17         24.3851    68.3342    14.0451 H            1 349999   0.0000
    55 H18         23.7582    66.5175    17.0992 H            1 349999   0.0000
    56 H19         21.9890    64.9938    17.3645 H            1 349999   0.0000
    57 H20         19.5945    63.8831    16.4787 H            1 349999   0.0000
    58 H21         22.1589    67.3749    13.3858 H            1 349999   0.0000
    59 H22         20.1841    65.1398    12.7163 H            1 349999   0.0000
    60 H23         19.3062    66.3667    13.3412 H            1 349999   0.0000
@<TRIPOS>BOND
     1    1    2       2
     2    2    3       2
     3    2    4       1
     4    2    9       1
     5    4    5       1
     6    4    8       1
     7    5    6       1
     8    6    7       1
     9    7    8       1
    10    9   10      ar
    11    9   14      ar
    12   10   11      ar
    13   11   12      ar
    14   12   13      ar
    15   13   14      ar
    16   14   15       1
    17   15   16       1
    18   16   17       1
    19   17   18      ar
    20   17   22      ar
    21   18   19      ar
    22   19   20      ar
    23   19   27       1
    24   20   21      ar
    25   21   22      ar
    26   22   23       1
    27   23   24       1
    28   23   25       1
    29   23   26       1
    30   27   28       1
    31   28   29      ar
    32   28   34      ar
    33   29   30      ar
    34   30   31      ar
    35   31   32       1
    36   31   33      ar
    37   32   36      am
    38   33   34      ar
    39   33   35       1
    40   35   36       1
    41   36   37       2
    42    5   38       1
    43    5   39       1
    44    6   40       1
    45    6   41       1
    46    7   42       1
    47    7   43       1
    48    8   44       1
    49    8   45       1
    50   10   46       1
    51   11   47       1
    52   12   48       1
    53   13   49       1
    54   15   50       1
    55   15   51       1
    56   16   52       1
    57   21   53       1
    58   27   54       1
    59   29   55       1
    60   30   56       1
    61   32   57       1
    62   34   58       1
    63   35   59       1
    64   35   60       1
@<TRIPOS>SUBSTRUCTURE
     1 349999      1 GROUP             4 A     349     0 **** 349 A 999
