@<TRIPOS>MOLECULE
2q3f_GNP_1_ligand
   45    47     1     0     0
SMALL
NO_CHARGES


@<TRIPOS>ATOM
     1 PG          14.2030    55.9710    31.7040 P.3          1 GNP401   0.0000
     2 O1G         15.3090    56.6890    31.0160 O.co2        1 GNP401   0.0000
     3 O2G         13.5770    54.9120    30.8830 O.co2        1 GNP401  -1.0000
     4 O3G         14.5430    55.5450    33.0820 O.co2        1 GNP401  -1.0000
     5 N3B         12.9680    57.1520    31.8990 N.3          1 GNP401   0.0000
     6 PB          13.0850    58.5770    32.8590 P.3          1 GNP401   0.0000
     7 O1B         12.9950    57.9800    34.3330 O.co2        1 GNP401   0.0000
     8 O2B         14.3450    59.2850    32.5290 O.co2        1 GNP401  -1.0000
     9 O3A         11.7670    59.3630    32.4360 O.3          1 GNP401   0.0000
    10 PA          11.7650    60.5310    31.3470 P.3          1 GNP401   0.0000
    11 O1A         12.5670    61.6790    31.8380 O.co2        1 GNP401   0.0000
    12 O2A         12.0810    59.9410    30.0310 O.co2        1 GNP401  -1.0000
    13 O5'         10.2660    61.0600    31.4080 O.3          1 GNP401   0.0000
    14 C5'          9.1550    60.3060    30.9350 C.3          1 GNP401   0.0000
    15 C4'          8.0530    61.2660    30.5440 C.3          1 GNP401   0.0000
    16 O4'          7.3700    61.7190    31.7380 O.3          1 GNP401   0.0000
    17 C3'          8.6100    62.5380    29.9190 C.3          1 GNP401   0.0000
    18 O3'          8.7100    62.3940    28.5100 O.3          1 GNP401   0.0000
    19 C2'          7.6120    63.6250    30.2930 C.3          1 GNP401   0.0000
    20 O2'          6.6770    63.8960    29.2750 O.3          1 GNP401   0.0000
    21 C1'          6.9580    63.0560    31.5580 C.3          1 GNP401   0.0000
    22 N9           7.2240    63.8140    32.7770 N.pl3        1 GNP401   0.0000
    23 C8           8.4380    64.0920    33.3650 C.2          1 GNP401   0.0000
    24 N7           8.3290    64.8420    34.4280 N.2          1 GNP401   0.0000
    25 C5           6.9610    65.0670    34.5490 C.2          1 GNP401   0.0000
    26 C6           6.2240    65.8340    35.4990 C.2          1 GNP401   0.0000
    27 O6           6.6470    66.5150    36.4440 O.2          1 GNP401   0.0000
    28 N1           4.8580    65.7700    35.2520 N.pl3        1 GNP401   0.0000
    29 C2           4.2710    65.0710    34.2290 C.2          1 GNP401   0.0000
    30 N2           2.9360    65.1000    34.1760 N.pl3        1 GNP401   0.0000
    31 N3           4.9400    64.3850    33.3280 N.2          1 GNP401   0.0000
    32 C4           6.2700    64.4240    33.5480 C.2          1 GNP401   0.0000
    33 H3B         12.7616    57.4729    30.9746 H            1 GNP401   0.0000
    34 H5'1         8.8298    59.6956    31.6573 H            1 GNP401   0.0000
    35 H5'2         9.4288    59.7651    30.1397 H            1 GNP401   0.0000
    36 H4'          7.4091    60.8232    29.9200 H            1 GNP401   0.0000
    37 H3'          9.5074    62.7472    30.3075 H            1 GNP401   0.0000
    38 H6           8.1468    63.0890    28.0631 H            1 GNP401   0.0000
    39 H2'          8.1053    64.4640    30.5228 H            1 GNP401   0.0000
    40 H8           6.3952    64.8540    29.3277 H            1 GNP401   0.0000
    41 H1'          5.9686    63.0519    31.4128 H            1 GNP401   0.0000
    42 H10          9.3116    63.7546    33.0144 H            1 GNP401   0.0000
    43 H11          4.2548    66.2742    35.8700 H            1 GNP401   0.0000
    44 H12          2.4536    64.6081    33.4512 H            1 GNP401   0.0000
    45 H13          2.4194    65.6136    34.8611 H            1 GNP401   0.0000
@<TRIPOS>BOND
     1    1    2      ar
     2    1    3      ar
     3    1    4      ar
     4    1    5       1
     5    5    6       1
     6    6    7      ar
     7    6    8      ar
     8    6    9       1
     9    9   10       1
    10   10   11      ar
    11   10   12      ar
    12   10   13       1
    13   13   14       1
    14   14   15       1
    15   15   16       1
    16   15   17       1
    17   16   21       1
    18   17   18       1
    19   17   19       1
    20   19   20       1
    21   19   21       1
    22   21   22       1
    23   22   23       1
    24   22   32       1
    25   23   24       2
    26   24   25       1
    27   25   26       1
    28   25   32       2
    29   26   27       2
    30   26   28       1
    31   28   29       1
    32   29   30       1
    33   29   31       2
    34   31   32       1
    35   30   45       1
    36   30   44       1
    37    5   33       1
    38   28   43       1
    39   23   42       1
    40   14   34       1
    41   14   35       1
    42   15   36       1
    43   17   37       1
    44   18   38       1
    45   19   39       1
    46   20   40       1
    47   21   41       1
@<TRIPOS>SUBSTRUCTURE
     1 GNP401      1 GROUP             4 A     GNP     0 **** GNP A 401
