@<TRIPOS>MOLECULE
1ws1_BB2_1_ligand
   59    59     1     0     0
SMALL
NO_CHARGES


@<TRIPOS>ATOM
     1 C5          -4.9730    44.3770    55.2300 C.3          1 BB2400   0.0000
     2 C3          -4.4200    44.0440    53.8400 C.2          1 BB2400   0.0000
     3 O4          -4.4140    44.9500    53.0380 O.2          1 BB2400   0.0000
     4 N1          -4.0010    42.8200    53.5250 N.am         1 BB2400   0.0000
     5 O2          -3.5700    42.5550    52.3880 O.3          1 BB2400  -1.0000
     6 C6          -6.5650    44.3290    55.0840 C.3          1 BB2400   0.0000
     7 C12         -7.3070    44.9290    56.2760 C.2          1 BB2400   0.0000
     8 O13         -7.0000    44.6240    57.4030 O.2          1 BB2400   0.0000
     9 C7          -7.0070    42.8300    54.9920 C.3          1 BB2400   0.0000
    10 C8          -8.5320    42.9080    54.7410 C.3          1 BB2400   0.0000
    11 C9          -9.1510    41.6190    54.5510 C.3          1 BB2400   0.0000
    12 C10        -10.5730    41.7530    54.0230 C.3          1 BB2400   0.0000
    13 C11        -11.5180    42.3420    55.0060 C.3          1 BB2400   0.0000
    14 N14         -8.2950    45.8170    55.9570 N.am         1 BB2400   0.0000
    15 C15         -9.1130    46.5460    56.9020 C.3          1 BB2400   0.0000
    16 C16         -8.8170    48.0510    56.9830 C.3          1 BB2400   0.0000
    17 C18         -8.7580    48.6800    55.6450 C.3          1 BB2400   0.0000
    18 C17         -7.4890    48.2190    57.6940 C.3          1 BB2400   0.0000
    19 C19        -10.5900    46.2420    56.5180 C.2          1 BB2400   0.0000
    20 O20        -10.8830    46.1010    55.3110 O.2          1 BB2400   0.0000
    21 N21        -11.5180    46.1150    57.4910 N.am         1 BB2400   0.0000
    22 C22        -12.9250    45.8040    57.1800 C.3          1 BB2400   0.0000
    23 C23        -11.3130    46.2470    58.9630 C.3          1 BB2400   0.0000
    24 C24        -12.6880    46.0030    59.5370 C.3          1 BB2400   0.0000
    25 C25        -13.4500    45.2600    58.4990 C.3          1 BB2400   0.0000
    26 C26        -13.7070    47.0270    56.7600 C.2          1 BB2400   0.0000
    27 O27        -13.5340    47.3590    55.5740 O.2          1 BB2400   0.0000
    28 H1          -4.6761    45.2886    55.5144 H            1 BB2400   0.0000
    29 H2          -4.6636    43.7017    55.8995 H            1 BB2400   0.0000
    30 H3          -4.0333    42.0985    54.2166 H            1 BB2400   0.0000
    31 H4          -6.8365    44.8072    54.2488 H            1 BB2400   0.0000
    32 H5          -6.8109    42.3480    55.8459 H            1 BB2400   0.0000
    33 H6          -6.5447    42.3683    54.2349 H            1 BB2400   0.0000
    34 H7          -8.6900    43.4588    53.9215 H            1 BB2400   0.0000
    35 H8          -8.9600    43.3516    55.5284 H            1 BB2400   0.0000
    36 H9          -9.1741    41.1377    55.4272 H            1 BB2400   0.0000
    37 H10         -8.6096    41.0924    53.8956 H            1 BB2400   0.0000
    38 H11        -10.9041    40.8435    53.7716 H            1 BB2400   0.0000
    39 H12        -10.5555    42.3374    53.2117 H            1 BB2400   0.0000
    40 H13        -12.4290    42.4017    54.5981 H            1 BB2400   0.0000
    41 H14        -11.5549    41.7635    55.8208 H            1 BB2400   0.0000
    42 H15        -11.2063    43.2573    55.2609 H            1 BB2400   0.0000
    43 H16         -8.4680    45.9772    54.9852 H            1 BB2400   0.0000
    44 H17         -8.9493    46.1560    57.8082 H            1 BB2400   0.0000
    45 H18         -9.5333    48.4956    57.5209 H            1 BB2400   0.0000
    46 H19         -8.5639    49.6560    55.7438 H            1 BB2400   0.0000
    47 H20         -8.0345    48.2491    55.1057 H            1 BB2400   0.0000
    48 H21         -9.6358    48.5600    55.1813 H            1 BB2400   0.0000
    49 H22         -7.2682    49.1919    57.7623 H            1 BB2400   0.0000
    50 H23         -7.5500    47.8258    58.6114 H            1 BB2400   0.0000
    51 H24         -6.7726    47.7501    57.1773 H            1 BB2400   0.0000
    52 H25        -12.9754    45.1006    56.4710 H            1 BB2400   0.0000
    53 H26        -10.9858    47.1625    59.1971 H            1 BB2400   0.0000
    54 H27        -10.6614    45.5651    59.2952 H            1 BB2400   0.0000
    55 H28        -13.1376    46.8729    59.7397 H            1 BB2400   0.0000
    56 H29        -12.6221    45.4590    60.3735 H            1 BB2400   0.0000
    57 H30        -13.2781    44.2774    58.5697 H            1 BB2400   0.0000
    58 H31        -14.4307    45.4341    58.5880 H            1 BB2400   0.0000
    59 H32        -14.3110    47.5259    57.3815 H            1 BB2400   0.0000
@<TRIPOS>BOND
     1    1    2       1
     2    1    6       1
     3    2    3       2
     4    2    4      am
     5    4    5       1
     6    6    7       1
     7    6    9       1
     8    7    8       2
     9    7   14      am
    10    9   10       1
    11   10   11       1
    12   11   12       1
    13   12   13       1
    14   14   15       1
    15   15   16       1
    16   15   19       1
    17   16   17       1
    18   16   18       1
    19   19   20       2
    20   19   21      am
    21   21   22       1
    22   21   23       1
    23   22   25       1
    24   22   26       1
    25   23   24       1
    26   24   25       1
    27   26   27       2
    28    1   28       1
    29    1   29       1
    30    4   30       1
    31   26   59       1
    32    6   31       1
    33    9   32       1
    34    9   33       1
    35   10   34       1
    36   10   35       1
    37   11   36       1
    38   11   37       1
    39   12   38       1
    40   12   39       1
    41   13   40       1
    42   13   41       1
    43   13   42       1
    44   14   43       1
    45   15   44       1
    46   16   45       1
    47   17   46       1
    48   17   47       1
    49   17   48       1
    50   18   49       1
    51   18   50       1
    52   18   51       1
    53   22   52       1
    54   23   53       1
    55   23   54       1
    56   24   55       1
    57   24   56       1
    58   25   57       1
    59   25   58       1
@<TRIPOS>SUBSTRUCTURE
     1 BB2400      1 GROUP             4 A     BB2     0 **** BB2 A 400
