@<TRIPOS>MOLECULE
2aqb_TL6_3_ligand
   25    25     1     0     0
SMALL
NO_CHARGES


@<TRIPOS>ATOM
     1 O1          -6.8280    40.7370    32.1930 O.2          1 TL6602   0.0000
     2 C1          -5.9810    40.4970    31.3560 C.2          1 TL6602   0.0000
     3 S1          -4.3960    40.9090    31.6240 S.3          1 TL6602   0.0000
     4 C4          -3.8810    40.0110    30.1990 C.3          1 TL6602   0.0000
     5 C10         -3.1910    38.7110    30.6120 C.3          1 TL6602   0.0000
     6 C3          -5.1570    39.7040    29.4610 C.2          1 TL6602   0.0000
     7 O2          -5.1830    39.2910    28.1910 O.3          1 TL6602   0.0000
     8 C2          -6.2450    39.8970    30.2020 C.2          1 TL6602   0.0000
     9 C9          -7.6300    39.4760    29.8030 C.3          1 TL6602   0.0000
    10 C5          -2.9710    40.8850    29.3620 C.2          1 TL6602   0.0000
    11 C6          -2.0480    41.6700    29.9180 C.2          1 TL6602   0.0000
    12 C7          -1.1930    42.4990    29.0730 C.2          1 TL6602   0.0000
    13 C8           0.0270    42.8270    29.4630 C.2          1 TL6602   0.0000
    14 H1          -2.9041    38.2116    29.7945 H            1 TL6602   0.0000
    15 H2          -2.3898    38.9222    31.1720 H            1 TL6602   0.0000
    16 H3          -3.8277    38.1488    31.1397 H            1 TL6602   0.0000
    17 H4          -4.3280    39.1728    27.6861 H            1 TL6602   0.0000
    18 H5          -7.6007    39.0458    28.9007 H            1 TL6602   0.0000
    19 H6          -7.9858    38.8234    30.4720 H            1 TL6602   0.0000
    20 H7          -8.2259    40.2784    29.7705 H            1 TL6602   0.0000
    21 H8          -3.0648    40.8731    28.3665 H            1 TL6602   0.0000
    22 H9          -1.9414    41.6911    30.9121 H            1 TL6602   0.0000
    23 H10         -1.5338    42.8220    28.1901 H            1 TL6602   0.0000
    24 H11          0.6037    43.3953    28.8761 H            1 TL6602   0.0000
    25 H12          0.3730    42.5068    30.3449 H            1 TL6602   0.0000
@<TRIPOS>BOND
     1    1    2       2
     2    2    3       1
     3    2    8       1
     4    3    4       1
     5    4    5       1
     6    4    6       1
     7    4   10       1
     8    6    7       1
     9    6    8       2
    10    8    9       1
    11   10   11       2
    12   11   12       1
    13   12   13       2
    14    5   14       1
    15    5   15       1
    16    5   16       1
    17    7   17       1
    18    9   18       1
    19    9   19       1
    20    9   20       1
    21   10   21       1
    22   11   22       1
    23   12   23       1
    24   13   24       1
    25   13   25       1
@<TRIPOS>SUBSTRUCTURE
     1 TL6602      1 GROUP             4 D     TL6     0 **** TL6 D 602
