@<TRIPOS>MOLECULE
1qao_SAM_1_ligand
   50    52     1     0     0
SMALL
NO_CHARGES


@<TRIPOS>ATOM
     1 N           12.3440    36.9960    22.8330 N.4          1 SAM245   1.0000
     2 CA          13.0720    38.0390    22.1090 C.3          1 SAM245   0.0000
     3 C           12.4650    38.3730    20.7490 C.2          1 SAM245   0.0000
     4 O           11.9390    37.4350    20.1110 O.co2        1 SAM245   0.0000
     5 OXT         12.5260    39.5660    20.3610 O.co2        1 SAM245  -1.0000
     6 CB          14.5550    37.6950    21.8430 C.3          1 SAM245   0.0000
     7 CG          14.8710    36.1870    21.6290 C.3          1 SAM245   0.0000
     8 SD          16.6290    35.8490    21.2340 S.3          1 SAM245   1.0000
     9 CE          16.5800    34.5570    19.9620 C.3          1 SAM245   0.0000
    10 C5'         17.3510    35.1390    22.7300 C.3          1 SAM245   0.0000
    11 C4'         17.1930    36.0120    23.9810 C.3          1 SAM245   0.0000
    12 O4'         17.5350    35.3120    25.1830 O.3          1 SAM245   0.0000
    13 C3'         17.9950    37.3110    24.0150 C.3          1 SAM245   0.0000
    14 O3'         17.2440    38.4330    24.4610 O.3          1 SAM245   0.0000
    15 C2'         19.2130    36.8890    24.8080 C.3          1 SAM245   0.0000
    16 O2'         19.8250    37.9650    25.5050 O.3          1 SAM245   0.0000
    17 C1'         18.5700    35.9890    25.8710 C.3          1 SAM245   0.0000
    18 N9          19.4470    34.9550    26.4430 N.pl3        1 SAM245   0.0000
    19 C8          20.4710    34.2450    25.9320 C.2          1 SAM245   0.0000
    20 N7          21.0230    33.3850    26.7990 N.2          1 SAM245   0.0000
    21 C5          20.3040    33.5310    27.9810 C.ar         1 SAM245   0.0000
    22 C6          20.3060    32.9960    29.2620 C.ar         1 SAM245   0.0000
    23 N6          21.1920    32.0410    29.6350 N.pl3        1 SAM245   0.0000
    24 N1          19.4080    33.4140    30.2030 N.ar         1 SAM245   0.0000
    25 C2          18.5020    34.3620    29.8840 C.ar         1 SAM245   0.0000
    26 N3          18.4340    34.9360    28.6630 N.ar         1 SAM245   0.0000
    27 C4          19.3250    34.5180    27.7430 C.ar         1 SAM245   0.0000
    28 H1          12.7911    36.8257    23.7111 H            1 SAM245   0.0000
    29 H2          11.4027    37.2946    22.9906 H            1 SAM245   0.0000
    30 HA          13.0473    38.8695    22.6655 H            1 SAM245   0.0000
    31 HB1         15.0891    38.0124    22.6265 H            1 SAM245   0.0000
    32 HB2         14.8421    38.1884    21.0220 H            1 SAM245   0.0000
    33 HG1         14.3079    35.8508    20.8741 H            1 SAM245   0.0000
    34 HG2         14.6353    35.6935    22.4662 H            1 SAM245   0.0000
    35 HE1         17.5132    34.3180    19.6935 H            1 SAM245   0.0000
    36 HE2         16.1203    33.7473    20.3268 H            1 SAM245   0.0000
    37 HE3         16.0795    34.8934    19.1643 H            1 SAM245   0.0000
    38 H5'1        18.3275    34.9956    22.5691 H            1 SAM245   0.0000
    39 H5'2        16.9091    34.2590    22.9041 H            1 SAM245   0.0000
    40 H4'         16.2265    36.2597    24.0482 H            1 SAM245   0.0000
    41 H3'         18.2961    37.5029    23.0809 H            1 SAM245   0.0000
    42 H15         17.3245    38.5144    25.4544 H            1 SAM245   0.0000
    43 H2'         19.8699    36.3887    24.2440 H            1 SAM245   0.0000
    44 H17         19.4215    38.0441    26.4166 H            1 SAM245   0.0000
    45 H1'         18.1825    36.5497    26.6027 H            1 SAM245   0.0000
    46 H19         20.7907    34.3501    24.9903 H            1 SAM245   0.0000
    47 H20         21.1697    31.6741    30.5650 H            1 SAM245   0.0000
    48 H21         21.8682    31.7032    28.9803 H            1 SAM245   0.0000
    49 H22         17.8504    34.6532    30.5844 H            1 SAM245   0.0000
    50 H23         12.3408    36.1550    22.2920 H            1 SAM245   0.0000
@<TRIPOS>BOND
     1    1    2       1
     2    2    3       1
     3    2    6       1
     4    3    4      ar
     5    3    5      ar
     6    6    7       1
     7    7    8       1
     8    8    9       1
     9    8   10       1
    10   10   11       1
    11   11   12       1
    12   11   13       1
    13   12   17       1
    14   13   14       1
    15   13   15       1
    16   15   16       1
    17   15   17       1
    18   17   18       1
    19   18   19       1
    20   18   27       1
    21   19   20       2
    22   20   21       1
    23   21   22      ar
    24   21   27      ar
    25   22   23       1
    26   22   24      ar
    27   24   25      ar
    28   25   26      ar
    29   26   27      ar
    30    1   28       1
    31    1   29       1
    32    2   30       1
    33    1   50       1
    34    6   31       1
    35    6   32       1
    36    7   33       1
    37    7   34       1
    38    9   35       1
    39    9   36       1
    40    9   37       1
    41   10   38       1
    42   10   39       1
    43   11   40       1
    44   13   41       1
    45   14   42       1
    46   15   43       1
    47   16   44       1
    48   17   45       1
    49   19   46       1
    50   23   47       1
    51   23   48       1
    52   25   49       1
@<TRIPOS>SUBSTRUCTURE
     1 SAM245      1 GROUP             4 A     SAM     0 **** SAM A 245
