@<TRIPOS>MOLECULE
1qo8_FAD_10_ligand
   84    89     1     0     0
SMALL
NO_CHARGES


@<TRIPOS>ATOM
     1 PA          27.3330    36.9290    45.4940 P.3          1 FAD605   0.0000
     2 O1A         27.0120    36.4160    46.8780 O.co2        1 FAD605   0.0000
     3 O2A         28.6230    37.0410    45.1040 O.co2        1 FAD605  -1.0000
     4 O5B         26.7340    35.7890    44.7120 O.3          1 FAD605   0.0000
     5 C5B         26.4650    35.8540    43.2800 C.3          1 FAD605   0.0000
     6 C4B         26.3370    34.4090    42.7240 C.3          1 FAD605   0.0000
     7 O4B         26.0920    34.4420    41.2630 O.3          1 FAD605   0.0000
     8 C3B         27.5050    33.3570    42.9490 C.3          1 FAD605   0.0000
     9 O3B         27.0110    32.2480    43.7010 O.3          1 FAD605   0.0000
    10 C2B         27.9060    33.0480    41.4970 C.3          1 FAD605   0.0000
    11 O2B         28.5360    31.8330    41.2010 O.3          1 FAD605   0.0000
    12 C1B         26.6550    33.2090    40.6920 C.3          1 FAD605   0.0000
    13 N9A         26.8180    33.6160    39.2650 N.pl3        1 FAD605   0.0000
    14 C8A         27.7550    34.5020    38.7850 C.2          1 FAD605   0.0000
    15 N7A         27.8390    34.6090    37.4490 N.2          1 FAD605   0.0000
    16 C5A         26.8690    33.6950    37.0210 C.ar         1 FAD605   0.0000
    17 C6A         26.4620    33.2670    35.6780 C.ar         1 FAD605   0.0000
    18 N6A         26.9530    33.7230    34.5410 N.pl3        1 FAD605   0.0000
    19 N1A         25.4910    32.2950    35.6330 N.ar         1 FAD605   0.0000
    20 C2A         24.9120    31.7620    36.7630 C.ar         1 FAD605   0.0000
    21 N3A         25.2530    32.1190    38.0190 N.ar         1 FAD605   0.0000
    22 C4A         26.2450    33.0470    38.1310 C.ar         1 FAD605   0.0000
    23 N1          29.3770    43.0330    52.8870 N.2          1 FAD605   0.0000
    24 C2          28.7600    43.5400    53.9210 C.2          1 FAD605   0.0000
    25 O2          27.7930    44.2530    53.9350 O.2          1 FAD605   0.0000
    26 N3          29.2130    43.1920    55.2240 N.pl3        1 FAD605   0.0000
    27 C4          30.2910    42.3650    55.4140 C.2          1 FAD605   0.0000
    28 O4          30.6400    42.0920    56.5400 O.2          1 FAD605   0.0000
    29 C4X         30.9730    41.8530    54.2420 C.2          1 FAD605   0.0000
    30 N5          32.0100    41.0270    54.3880 N.2          1 FAD605   0.0000
    31 C5X         32.6040    40.5480    53.2680 C.ar         1 FAD605   0.0000
    32 C6          33.6950    39.6690    53.4710 C.ar         1 FAD605   0.0000
    33 C7          34.3300    39.1470    52.3710 C.ar         1 FAD605   0.0000
    34 C7M         35.5010    38.2040    52.5480 C.3          1 FAD605   0.0000
    35 C8          33.8800    39.5040    51.0350 C.ar         1 FAD605   0.0000
    36 C8M         34.5810    38.9770    49.7910 C.3          1 FAD605   0.0000
    37 C9          32.8460    40.4100    50.8460 C.ar         1 FAD605   0.0000
    38 C9A         32.1840    40.9390    51.9520 C.ar         1 FAD605   0.0000
    39 N10         31.0980    41.8560    51.8610 N.pl3        1 FAD605   0.0000
    40 C10         30.4970    42.3320    52.9490 C.2          1 FAD605   0.0000
    41 C1'         30.5350    42.2430    50.5460 C.3          1 FAD605   0.0000
    42 C2'         29.1540    41.5000    50.3840 C.3          1 FAD605   0.0000
    43 O2'         29.3790    40.2610    51.0660 O.3          1 FAD605   0.0000
    44 C3'         29.0950    41.1240    48.8700 C.3          1 FAD605   0.0000
    45 O3'         29.0160    42.3770    48.1620 O.3          1 FAD605   0.0000
    46 C4'         27.6970    40.4840    48.7090 C.3          1 FAD605   0.0000
    47 O4'         27.4850    39.4950    49.7140 O.3          1 FAD605   0.0000
    48 C5'         27.5030    39.9610    47.3090 C.3          1 FAD605   0.0000
    49 O5'         26.0260    39.5320    47.1600 O.3          1 FAD605   0.0000
    50 P           25.4260    39.0500    45.8620 P.3          1 FAD605   0.0000
    51 O1P         24.1500    38.2660    46.0910 O.co2        1 FAD605   0.0000
    52 O2P         25.2250    40.1740    44.9930 O.co2        1 FAD605  -1.0000
    53 O3P         26.4550    38.2880    45.2450 O.3          1 FAD605   0.0000
    54 H5B1        27.2165    36.3255    42.8186 H            1 FAD605   0.0000
    55 H5B2        25.6120    36.3512    43.1212 H            1 FAD605   0.0000
    56 H4B         25.5171    34.0162    43.1405 H            1 FAD605   0.0000
    57 H3B         28.2674    33.7877    43.4320 H            1 FAD605   0.0000
    58 H5          26.2629    31.8125    43.2003 H            1 FAD605   0.0000
    59 H2B         28.5300    33.7744    41.2091 H            1 FAD605   0.0000
    60 H7          27.9362    31.0752    41.4580 H            1 FAD605   0.0000
    61 H1B         26.0373    32.4292    40.7941 H            1 FAD605   0.0000
    62 H8A         28.3398    35.0356    39.3959 H            1 FAD605   0.0000
    63 H6A1        26.6107    33.3687    33.6707 H            1 FAD605   0.0000
    64 H6A2        27.6673    34.4228    34.5497 H            1 FAD605   0.0000
    65 H2A         24.1984    31.0712    36.6463 H            1 FAD605   0.0000
    66 H13         28.7338    43.5593    56.0211 H            1 FAD605   0.0000
    67 H14         33.9965    39.4335    54.3949 H            1 FAD605   0.0000
    68 H7M1        35.8406    37.9221    51.6507 H            1 FAD605   0.0000
    69 H7M2        36.2306    38.6690    53.0495 H            1 FAD605   0.0000
    70 H7M3        35.2054    37.3980    53.0608 H            1 FAD605   0.0000
    71 H8M1        34.1255    39.3337    48.9754 H            1 FAD605   0.0000
    72 H8M2        35.5361    39.2733    49.7958 H            1 FAD605   0.0000
    73 H8M3        34.5420    37.9778    49.7845 H            1 FAD605   0.0000
    74 H21         32.5777    40.6815    49.9217 H            1 FAD605   0.0000
    75 H1'1        31.1582    41.9685    49.8137 H            1 FAD605   0.0000
    76 H1'2        30.3962    43.2327    50.5121 H            1 FAD605   0.0000
    77 H2'         28.3641    42.0170    50.7137 H            1 FAD605   0.0000
    78 H25         28.8203    39.5444    50.6484 H            1 FAD605   0.0000
    79 H3'         29.8461    40.5362    48.5695 H            1 FAD605   0.0000
    80 H27         29.4488    42.2812    47.2656 H            1 FAD605   0.0000
    81 H4'         27.0203    41.2059    48.8539 H            1 FAD605   0.0000
    82 H29         26.8759    38.7853    49.3600 H            1 FAD605   0.0000
    83 H5'1        28.1019    39.1753    47.1542 H            1 FAD605   0.0000
    84 H5'2        27.7165    40.6786    46.6460 H            1 FAD605   0.0000
@<TRIPOS>BOND
     1    1    2      ar
     2    1    3      ar
     3    1    4       1
     4    1   53       1
     5    4    5       1
     6    5    6       1
     7    6    7       1
     8    6    8       1
     9    7   12       1
    10    8    9       1
    11    8   10       1
    12   10   11       1
    13   10   12       1
    14   12   13       1
    15   13   14       1
    16   13   22       1
    17   14   15       2
    18   15   16       1
    19   16   17      ar
    20   16   22      ar
    21   17   18       1
    22   17   19      ar
    23   19   20      ar
    24   20   21      ar
    25   21   22      ar
    26   23   24       1
    27   23   40       2
    28   24   25       2
    29   24   26       1
    30   26   27       1
    31   27   28       2
    32   27   29       1
    33   29   30       2
    34   29   40       1
    35   30   31       1
    36   31   32      ar
    37   31   38      ar
    38   32   33      ar
    39   33   34       1
    40   33   35      ar
    41   35   36       1
    42   35   37      ar
    43   37   38      ar
    44   38   39       1
    45   39   40       1
    46   39   41       1
    47   41   42       1
    48   42   43       1
    49   42   44       1
    50   44   45       1
    51   44   46       1
    52   46   47       1
    53   46   48       1
    54   48   49       1
    55   49   50       1
    56   50   51      ar
    57   50   52      ar
    58   50   53       1
    59   48   84       1
    60    5   54       1
    61    5   55       1
    62    6   56       1
    63    8   57       1
    64    9   58       1
    65   10   59       1
    66   11   60       1
    67   12   61       1
    68   14   62       1
    69   18   63       1
    70   18   64       1
    71   20   65       1
    72   26   66       1
    73   32   67       1
    74   34   68       1
    75   34   69       1
    76   34   70       1
    77   36   71       1
    78   36   72       1
    79   36   73       1
    80   37   74       1
    81   41   75       1
    82   41   76       1
    83   42   77       1
    84   43   78       1
    85   44   79       1
    86   45   80       1
    87   46   81       1
    88   47   82       1
    89   48   83       1
@<TRIPOS>SUBSTRUCTURE
     1 FAD605      1 GROUP             4 D     FAD     0 **** FAD D 605
