@<TRIPOS>MOLECULE
1uhj_CZB_1_ligand
   54    58     1     0     0
SMALL
NO_CHARGES


@<TRIPOS>ATOM
     1 O18         -1.1380     1.2490     0.7510 O.2          1 CZB1001   0.0000
     2 C3          -1.1960     0.3180     1.5360 C.2          1 CZB1001   0.0000
     3 N4          -0.4330    -0.8000     1.4140 N.pl3        1 CZB1001   0.0000
     4 C5           0.4050    -1.1520     0.4180 C.2          1 CZB1001   0.0000
     5 C9          -0.6800    -1.5910     2.4550 C.2          1 CZB1001   0.0000
     6 C8          -0.0350    -2.9110     2.4880 C.2          1 CZB1001   0.0000
     7 C26         -0.2410    -3.8290     3.6580 C.3          1 CZB1001   0.0000
     8 C27         -1.0120    -5.0420     3.3550 C.ar         1 CZB1001   0.0000
     9 C28         -2.2060    -5.2090     4.0110 C.ar         1 CZB1001   0.0000
    10 C29         -2.9660    -6.3310     3.7770 C.ar         1 CZB1001   0.0000
    11 C30         -2.5450    -7.2460     2.8350 C.ar         1 CZB1001   0.0000
    12 C31         -1.3460    -7.0620     2.1250 C.ar         1 CZB1001   0.0000
    13 C32         -0.5420    -5.9520     2.4110 C.ar         1 CZB1001   0.0000
    14 N7           0.7980    -3.2150     1.4830 N.2          1 CZB1001   0.0000
    15 C6           1.0420    -2.4110     0.4470 C.2          1 CZB1001   0.0000
    16 C19          2.0430    -2.8360    -0.5870 C.ar         1 CZB1001   0.0000
    17 C20          2.5930    -4.1020    -0.5220 C.ar         1 CZB1001   0.0000
    18 C21          3.5010    -4.5870    -1.4500 C.ar         1 CZB1001   0.0000
    19 C24          2.4460    -2.0320    -1.6490 C.ar         1 CZB1001   0.0000
    20 C23          3.3660    -2.5190    -2.5860 C.ar         1 CZB1001   0.0000
    21 C22          3.8850    -3.8020    -2.4900 C.ar         1 CZB1001   0.0000
    22 O25          4.8190    -4.3080    -3.3220 O.3          1 CZB1001   0.0000
    23 N1          -1.5800    -1.0640     3.2910 N.2          1 CZB1001   0.0000
    24 C2          -1.9930     0.2480     2.8370 C.3          1 CZB1001   0.0000
    25 O33         -1.4380     1.3230     3.5940 O.3          1 CZB1001   0.0000
    26 O34         -0.2510     0.9980     4.3860 O.3          1 CZB1001   0.0000
    27 C10         -3.5150     0.2860     2.8860 C.3          1 CZB1001   0.0000
    28 C11         -4.0320     1.4430     2.0870 C.ar         1 CZB1001   0.0000
    29 C12         -4.0510     2.6870     2.6660 C.ar         1 CZB1001   0.0000
    30 C13         -4.5010     3.7820     1.9480 C.ar         1 CZB1001   0.0000
    31 C14         -4.9270     3.6130     0.6300 C.ar         1 CZB1001   0.0000
    32 BR17        -5.5060     5.1550    -0.3220 Br           1 CZB1001   0.0000
    33 C15         -4.9180     2.3580     0.0410 C.ar         1 CZB1001   0.0000
    34 C16         -4.4720     1.2680     0.7640 C.ar         1 CZB1001   0.0000
    35 H1           0.5748    -0.5221    -0.3399 H            1 CZB1001   0.0000
    36 H2          -0.7250    -3.3217     4.3711 H            1 CZB1001   0.0000
    37 H3           0.6573    -4.1072     3.9982 H            1 CZB1001   0.0000
    38 H4          -2.5229    -4.5157     4.6583 H            1 CZB1001   0.0000
    39 H5          -3.8145    -6.4817     4.2843 H            1 CZB1001   0.0000
    40 H6          -3.1033    -8.0556     2.6537 H            1 CZB1001   0.0000
    41 H7          -1.0698    -7.7177     1.4223 H            1 CZB1001   0.0000
    42 H8           0.3374    -5.8175     1.9543 H            1 CZB1001   0.0000
    43 H9           2.3220    -4.6988     0.2333 H            1 CZB1001   0.0000
    44 H10          3.8718    -5.5108    -1.3544 H            1 CZB1001   0.0000
    45 H11          2.0787    -1.1067    -1.7431 H            1 CZB1001   0.0000
    46 H12          3.6549    -1.9294    -3.3402 H            1 CZB1001   0.0000
    47 H13          5.1364    -3.7706    -4.1033 H            1 CZB1001   0.0000
    48 H14         -0.0183     0.0340     4.2576 H            1 CZB1001   0.0000
    49 H15         -3.8122     0.3820     3.8360 H            1 CZB1001   0.0000
    50 H16         -3.8786    -0.5651     2.5074 H            1 CZB1001   0.0000
    51 H17         -3.7390     2.8030     3.6090 H            1 CZB1001   0.0000
    52 H18         -4.5206     4.6879     2.3711 H            1 CZB1001   0.0000
    53 H19         -5.2323     2.2422    -0.9012 H            1 CZB1001   0.0000
    54 H20         -4.4624     0.3589     0.3476 H            1 CZB1001   0.0000
@<TRIPOS>BOND
     1    1    2       2
     2    2    3       1
     3    2   24       1
     4    3    4       1
     5    3    5       1
     6    4   15       2
     7    5    6       1
     8    5   23       2
     9    6    7       1
    10    6   14       2
    11    7    8       1
    12    8    9      ar
    13    8   13      ar
    14    9   10      ar
    15   10   11      ar
    16   11   12      ar
    17   12   13      ar
    18   14   15       1
    19   15   16       1
    20   16   17      ar
    21   16   19      ar
    22   17   18      ar
    23   18   21      ar
    24   19   20      ar
    25   20   21      ar
    26   21   22       1
    27   23   24       1
    28   24   25       1
    29   24   27       1
    30   25   26       1
    31   27   28       1
    32   28   29      ar
    33   28   34      ar
    34   29   30      ar
    35   30   31      ar
    36   31   32       1
    37   31   33      ar
    38   33   34      ar
    39    4   35       1
    40    7   36       1
    41    7   37       1
    42    9   38       1
    43   10   39       1
    44   11   40       1
    45   12   41       1
    46   13   42       1
    47   17   43       1
    48   18   44       1
    49   19   45       1
    50   20   46       1
    51   22   47       1
    52   26   48       1
    53   27   49       1
    54   27   50       1
    55   29   51       1
    56   30   52       1
    57   33   53       1
    58   34   54       1
@<TRIPOS>SUBSTRUCTURE
     1 CZB1001     1 GROUP             4 A     CZB     0 **** CZB A1001
