@<TRIPOS>MOLECULE
4xxb_IMD_1_ligand
    9     9     1     0     0
SMALL
NO_CHARGES


@<TRIPOS>ATOM
     1 N1         -32.0050    12.1160    24.9330 N.pl3        1 IMD201   0.0000
     2 C2         -32.7130    13.2740    24.9870 C.2          1 IMD201   0.0000
     3 N3         -33.0280    13.6620    23.7230 N.2          1 IMD201   0.0000
     4 C4         -32.5070    12.7460    22.8790 C.2          1 IMD201   0.0000
     5 C5         -31.8670    11.7800    23.6350 C.2          1 IMD201   0.0000
     6 H1         -31.6500    11.6047    25.7156 H            1 IMD201   0.0000
     7 H2         -32.9625    13.7628    25.8229 H            1 IMD201   0.0000
     8 H3         -32.5723    12.7628    21.8813 H            1 IMD201   0.0000
     9 H4         -31.3879    10.9765    23.2817 H            1 IMD201   0.0000
@<TRIPOS>BOND
     1    1    2       1
     2    1    5       1
     3    2    3       2
     4    3    4       1
     5    4    5       2
     6    1    6       1
     7    2    7       1
     8    4    8       1
     9    5    9       1
@<TRIPOS>SUBSTRUCTURE
     1 IMD201      1 GROUP             4 A     IMD     0 **** IMD A 201
