@<TRIPOS>MOLECULE
5dou_ADP_11_ligand
   39    41     1     0     0
SMALL
NO_CHARGES


@<TRIPOS>ATOM
     1 PB         -16.4420   -55.6840   122.1530 P.3          1 ADP2008   0.0000
     2 O1B        -17.5250   -56.7160   121.7900 O.co2        1 ADP2008   0.0000
     3 O2B        -15.0690   -56.3580   122.3730 O.co2        1 ADP2008  -1.0000
     4 O3B        -16.7980   -54.5390   123.0540 O.co2        1 ADP2008  -1.0000
     5 PA         -16.8720   -53.4960   120.2220 P.3          1 ADP2008   0.0000
     6 O1A        -17.2350   -53.7140   118.7270 O.co2        1 ADP2008   0.0000
     7 O2A        -18.0460   -52.9430   121.0340 O.co2        1 ADP2008  -1.0000
     8 O3A        -16.3170   -54.9580   120.6900 O.3          1 ADP2008   0.0000
     9 O5'        -15.5390   -52.5780   120.2890 O.3          1 ADP2008   0.0000
    10 C5'        -15.1060   -52.0830   121.5190 C.3          1 ADP2008   0.0000
    11 C4'        -14.9050   -50.5540   121.5200 C.3          1 ADP2008   0.0000
    12 O4'        -14.0470   -50.2100   120.4890 O.3          1 ADP2008   0.0000
    13 C3'        -16.1150   -49.7070   121.2320 C.3          1 ADP2008   0.0000
    14 O3'        -16.8950   -49.4360   122.3650 O.3          1 ADP2008   0.0000
    15 C2'        -15.4880   -48.4120   120.8140 C.3          1 ADP2008   0.0000
    16 O2'        -15.0380   -47.5400   121.8950 O.3          1 ADP2008   0.0000
    17 C1'        -14.3180   -48.9180   120.0080 C.3          1 ADP2008   0.0000
    18 N9         -14.5380   -48.9710   118.5180 N.pl3        1 ADP2008   0.0000
    19 C8         -15.1650   -49.9570   117.7910 C.2          1 ADP2008   0.0000
    20 N7         -15.1140   -49.7330   116.4630 N.2          1 ADP2008   0.0000
    21 C5         -14.4390   -48.5870   116.3530 C.ar         1 ADP2008   0.0000
    22 C6         -14.0370   -47.8090   115.2210 C.ar         1 ADP2008   0.0000
    23 N6         -14.4260   -48.3060   114.0510 N.pl3        1 ADP2008   0.0000
    24 N1         -13.3380   -46.6920   115.3460 N.ar         1 ADP2008   0.0000
    25 C2         -13.0020   -46.2610   116.6100 C.ar         1 ADP2008   0.0000
    26 N3         -13.3020   -46.9410   117.7540 N.ar         1 ADP2008   0.0000
    27 C4         -14.0230   -48.0970   117.6590 C.ar         1 ADP2008   0.0000
    28 H5'1       -14.2355   -52.5184   121.7485 H            1 ADP2008   0.0000
    29 H5'2       -15.7878   -52.3147   122.2129 H            1 ADP2008   0.0000
    30 H4'        -14.5042   -50.2732   122.3921 H            1 ADP2008   0.0000
    31 H3'        -16.6666   -50.0987   120.4956 H            1 ADP2008   0.0000
    32 H5         -17.6783   -48.8720   122.1034 H            1 ADP2008   0.0000
    33 H2'        -16.1157   -47.9116   120.2177 H            1 ADP2008   0.0000
    34 H7         -15.7815   -46.9256   122.1591 H            1 ADP2008   0.0000
    35 H1'        -13.5266   -48.3356   120.1935 H            1 ADP2008   0.0000
    36 H9         -15.6096   -50.7524   118.2029 H            1 ADP2008   0.0000
    37 H10        -14.1914   -47.8308   113.2030 H            1 ADP2008   0.0000
    38 H11        -14.9533   -49.1551   114.0189 H            1 ADP2008   0.0000
    39 H12        -12.5075   -45.3960   116.6946 H            1 ADP2008   0.0000
@<TRIPOS>BOND
     1    1    2      ar
     2    1    3      ar
     3    1    4      ar
     4    1    8       1
     5    5    6      ar
     6    5    7      ar
     7    5    8       1
     8    5    9       1
     9    9   10       1
    10   10   11       1
    11   11   12       1
    12   11   13       1
    13   12   17       1
    14   13   14       1
    15   13   15       1
    16   15   16       1
    17   15   17       1
    18   17   18       1
    19   18   19       1
    20   18   27       1
    21   19   20       2
    22   20   21       1
    23   21   22      ar
    24   21   27      ar
    25   22   23       1
    26   22   24      ar
    27   24   25      ar
    28   25   26      ar
    29   26   27      ar
    30   25   39       1
    31   23   38       1
    32   23   37       1
    33   10   28       1
    34   10   29       1
    35   11   30       1
    36   13   31       1
    37   14   32       1
    38   15   33       1
    39   16   34       1
    40   17   35       1
    41   19   36       1
@<TRIPOS>SUBSTRUCTURE
     1 ADP2008     1 GROUP             4 D     ADP     0 **** ADP D2008
