@<TRIPOS>MOLECULE
4xf6_ADP_2_ligand
   39    41     1     0     0
SMALL
NO_CHARGES


@<TRIPOS>ATOM
     1 PB           6.7400    40.6710   -15.3650 P.3          1 ADP302   0.0000
     2 O1B          7.4690    41.2200   -16.5740 O.co2        1 ADP302   0.0000
     3 O2B          7.7260    40.6790   -14.1840 O.co2        1 ADP302  -1.0000
     4 O3B          5.3660    41.2060   -15.0470 O.co2        1 ADP302  -1.0000
     5 PA           5.6870    38.1410   -14.7100 P.3          1 ADP302   0.0000
     6 O1A          4.6380    37.5130   -15.6000 O.co2        1 ADP302   0.0000
     7 O2A          5.2550    38.5630   -13.3510 O.co2        1 ADP302  -1.0000
     8 O3A          6.5160    39.1550   -15.6400 O.3          1 ADP302   0.0000
     9 O5'          6.9520    37.1820   -14.5630 O.3          1 ADP302   0.0000
    10 C5'          6.4120    35.9330   -14.3880 C.3          1 ADP302   0.0000
    11 C4'          7.4060    34.8200   -14.5060 C.3          1 ADP302   0.0000
    12 O4'          8.2090    34.7940   -13.2930 O.3          1 ADP302   0.0000
    13 C3'          6.3470    33.7320   -14.4870 C.3          1 ADP302   0.0000
    14 O3'          6.1610    33.1370   -15.7680 O.3          1 ADP302   0.0000
    15 C2'          6.8240    32.8680   -13.3580 C.3          1 ADP302   0.0000
    16 O2'          7.6550    31.8250   -13.8770 O.3          1 ADP302   0.0000
    17 C1'          7.6010    33.8400   -12.4400 C.3          1 ADP302   0.0000
    18 N9           6.7220    34.4950   -11.4180 N.pl3        1 ADP302   0.0000
    19 C8           6.3110    35.7780   -11.2840 C.2          1 ADP302   0.0000
    20 N7           5.5370    35.9500   -10.2020 N.2          1 ADP302   0.0000
    21 C5           5.4350    34.7640    -9.5990 C.ar         1 ADP302   0.0000
    22 C6           4.7790    34.2250    -8.3990 C.ar         1 ADP302   0.0000
    23 N6           4.0230    34.9880    -7.5580 N.pl3        1 ADP302   0.0000
    24 N1           4.9610    32.9140    -8.1650 N.ar         1 ADP302   0.0000
    25 C2           5.6890    32.1070    -8.9180 C.ar         1 ADP302   0.0000
    26 N3           6.3210    32.5290   -10.0460 N.ar         1 ADP302   0.0000
    27 C4           6.2250    33.8220   -10.4040 C.ar         1 ADP302   0.0000
    28 H5'1         5.7032    35.7967   -15.0801 H            1 ADP302   0.0000
    29 H5'2         6.0008    35.8926   -13.4773 H            1 ADP302   0.0000
    30 H4'          7.9449    34.8459   -15.3480 H            1 ADP302   0.0000
    31 H3'          5.4808    34.1491   -14.2118 H            1 ADP302   0.0000
    32 H5           5.2149    32.8255   -15.8567 H            1 ADP302   0.0000
    33 H2'          6.0446    32.4778   -12.8679 H            1 ADP302   0.0000
    34 H7           8.4416    32.2274   -14.3453 H            1 ADP302   0.0000
    35 H1'          8.3186    33.3295   -11.9663 H            1 ADP302   0.0000
    36 H9           6.5559    36.5118   -11.9177 H            1 ADP302   0.0000
    37 H10          3.5972    34.5735    -6.7537 H            1 ADP302   0.0000
    38 H11          3.8947    35.9618    -7.7458 H            1 ADP302   0.0000
    39 H12          5.7785    31.1485    -8.6474 H            1 ADP302   0.0000
@<TRIPOS>BOND
     1    1    2      ar
     2    1    3      ar
     3    1    4      ar
     4    1    8       1
     5    5    6      ar
     6    5    7      ar
     7    5    8       1
     8    5    9       1
     9    9   10       1
    10   10   11       1
    11   11   12       1
    12   11   13       1
    13   12   17       1
    14   13   14       1
    15   13   15       1
    16   15   16       1
    17   15   17       1
    18   17   18       1
    19   18   19       1
    20   18   27       1
    21   19   20       2
    22   20   21       1
    23   21   22      ar
    24   21   27      ar
    25   22   23       1
    26   22   24      ar
    27   24   25      ar
    28   25   26      ar
    29   26   27      ar
    30   25   39       1
    31   23   38       1
    32   23   37       1
    33   10   28       1
    34   10   29       1
    35   11   30       1
    36   13   31       1
    37   14   32       1
    38   15   33       1
    39   16   34       1
    40   17   35       1
    41   19   36       1
@<TRIPOS>SUBSTRUCTURE
     1 ADP302      1 GROUP             4 B     ADP     0 **** ADP B 302
