@<TRIPOS>MOLECULE
1ism_NCA_1_ligand
   15    15     1     0     0
SMALL
NO_CHARGES


@<TRIPOS>ATOM
     1 N1          16.5220    65.3720    85.5910 N.ar         1 NCA303   0.0000
     2 C2          15.7150    66.5780    85.5140 C.ar         1 NCA303   0.0000
     3 C3          14.5300    66.6250    84.6940 C.ar         1 NCA303   0.0000
     4 C4          14.2210    65.3840    83.9660 C.ar         1 NCA303   0.0000
     5 C5          15.0030    64.2110    84.0400 C.ar         1 NCA303   0.0000
     6 C6          16.1570    64.2100    84.8580 C.ar         1 NCA303   0.0000
     7 C7          13.6280    67.8680    84.5640 C.2          1 NCA303   0.0000
     8 O7          12.6577    67.7938    83.8314 O.2          1 NCA303   0.0000
     9 N7          13.9080    68.9566    85.2246 N.am         1 NCA303   0.0000
    10 H1          15.9852    67.3864    86.0369 H            1 NCA303   0.0000
    11 H2          13.4081    65.3708    83.3838 H            1 NCA303   0.0000
    12 H3          14.7455    63.3947    83.5229 H            1 NCA303   0.0000
    13 H4          16.7201    63.3860    84.9211 H            1 NCA303   0.0000
    14 H5          13.3187    69.7598    85.1376 H            1 NCA303   0.0000
    15 H6          14.7121    68.9883    85.8183 H            1 NCA303   0.0000
@<TRIPOS>BOND
     1    1    2      ar
     2    1    6      ar
     3    2    3      ar
     4    3    4      ar
     5    3    7       1
     6    4    5      ar
     7    5    6      ar
     8    7    8       2
     9    7    9      am
    10    2   10       1
    11    4   11       1
    12    5   12       1
    13    6   13       1
    14    9   14       1
    15    9   15       1
@<TRIPOS>SUBSTRUCTURE
     1 NCA303      1 GROUP             4 A     NCA     0 **** NCA A 303
