@<TRIPOS>MOLECULE
2h00_SAH_2_ligand
   46    48     1     0     0
SMALL
NO_CHARGES


@<TRIPOS>ATOM
     1 N           62.3790    19.9850     5.9150 N.4          1 SAH301   1.0000
     2 CA          61.2010    19.3870     6.6100 C.3          1 SAH301   0.0000
     3 CB          59.8740    19.9200     6.0150 C.3          1 SAH301   0.0000
     4 CG          59.6230    19.5730     4.5410 C.3          1 SAH301   0.0000
     5 SD          57.9270    20.0070     3.9590 S.3          1 SAH301   0.0000
     6 C           61.3430    17.8630     6.5000 C.2          1 SAH301   0.0000
     7 O           62.2990    17.4140     5.8530 O.co2        1 SAH301   0.0000
     8 OXT         60.5570    17.0450     7.0190 O.co2        1 SAH301  -1.0000
     9 C5'         58.3300    21.5700     3.1080 C.3          1 SAH301   0.0000
    10 C4'         58.0640    22.7980     3.9910 C.3          1 SAH301   0.0000
    11 O4'         58.3280    24.0040     3.2940 O.3          1 SAH301   0.0000
    12 C3'         56.6530    22.9650     4.5610 C.3          1 SAH301   0.0000
    13 O3'         56.6610    22.9060     5.9850 O.3          1 SAH301   0.0000
    14 C2'         56.1990    24.3500     4.1030 C.3          1 SAH301   0.0000
    15 O2'         55.4420    24.9880     5.0990 O.3          1 SAH301   0.0000
    16 C1'         57.5130    25.0590     3.8070 C.3          1 SAH301   0.0000
    17 N9          57.5970    26.0590     2.7290 N.pl3        1 SAH301   0.0000
    18 C8          56.9110    26.1050     1.5360 C.2          1 SAH301   0.0000
    19 N7          57.3640    27.1460     0.8030 N.2          1 SAH301   0.0000
    20 C5          58.3540    27.7710     1.5060 C.ar         1 SAH301   0.0000
    21 C6          59.1420    28.9030     1.2510 C.ar         1 SAH301   0.0000
    22 N6          59.0120    29.5810     0.1110 N.pl3        1 SAH301   0.0000
    23 N1          60.0860    29.3070     2.2030 N.ar         1 SAH301   0.0000
    24 C2          60.2200    28.6040     3.3990 C.ar         1 SAH301   0.0000
    25 N3          59.4250    27.4920     3.6470 N.ar         1 SAH301   0.0000
    26 C4          58.5110    27.0910     2.7210 C.ar         1 SAH301   0.0000
    27 H1          63.1467    20.0461     6.5529 H            1 SAH301   0.0000
    28 H2          62.6357    19.4093     5.1387 H            1 SAH301   0.0000
    29 HA          61.2401    19.6406     7.5765 H            1 SAH301   0.0000
    30 HB1         59.8764    20.9163     6.1007 H            1 SAH301   0.0000
    31 HB2         59.1211    19.5410     6.5531 H            1 SAH301   0.0000
    32 HG1         59.7566    18.5893     4.4206 H            1 SAH301   0.0000
    33 HG2         60.2862    20.0704     3.9817 H            1 SAH301   0.0000
    34 H5'1        57.7706    21.6403     2.2821 H            1 SAH301   0.0000
    35 H5'2        59.2975    21.5587     2.8554 H            1 SAH301   0.0000
    36 H4'         58.6965    22.7540     4.7643 H            1 SAH301   0.0000
    37 H3'         56.0456    22.2626     4.1900 H            1 SAH301   0.0000
    38 H12         57.2390    23.6380     6.3457 H            1 SAH301   0.0000
    39 H2'         55.6595    24.2707     3.2648 H            1 SAH301   0.0000
    40 H14         56.0495    25.5156     5.6927 H            1 SAH301   0.0000
    41 H1'         57.9080    25.4238     4.6502 H            1 SAH301   0.0000
    42 H16         56.1917    25.4690     1.2564 H            1 SAH301   0.0000
    43 H17         59.5796    30.3865    -0.0592 H            1 SAH301   0.0000
    44 H18         58.3469    29.2842    -0.5742 H            1 SAH301   0.0000
    45 H19         60.8897    28.9006     4.0799 H            1 SAH301   0.0000
    46 H20         62.1438    20.9002     5.5878 H            1 SAH301   0.0000
@<TRIPOS>BOND
     1    1    2       1
     2    2    3       1
     3    2    6       1
     4    3    4       1
     5    4    5       1
     6    5    9       1
     7    6    7      ar
     8    6    8      ar
     9    9   10       1
    10   10   11       1
    11   10   12       1
    12   11   16       1
    13   12   13       1
    14   12   14       1
    15   14   15       1
    16   14   16       1
    17   16   17       1
    18   17   18       1
    19   17   26       1
    20   18   19       2
    21   19   20       1
    22   20   21      ar
    23   20   26      ar
    24   21   22       1
    25   21   23      ar
    26   23   24      ar
    27   24   25      ar
    28   25   26      ar
    29    1   27       1
    30    1   28       1
    31    2   29       1
    32    3   30       1
    33    3   31       1
    34    4   32       1
    35    4   33       1
    36    1   46       1
    37    9   34       1
    38    9   35       1
    39   10   36       1
    40   12   37       1
    41   13   38       1
    42   14   39       1
    43   15   40       1
    44   16   41       1
    45   18   42       1
    46   22   43       1
    47   22   44       1
    48   24   45       1
@<TRIPOS>SUBSTRUCTURE
     1 SAH301      1 GROUP             4 B     SAH     0 **** SAH B 301
