@<TRIPOS>MOLECULE
3pgp_ACO_1_ligand
   85    87     1     0     0
SMALL
NO_CHARGES


@<TRIPOS>ATOM
     1 N1A          3.2180    11.9350   -16.5070 N.ar         1 ACO1423   0.0000
     2 C2A          3.5530    11.7380   -15.2360 C.ar         1 ACO1423   0.0000
     3 N3A          2.9560    12.3070   -14.1530 N.ar         1 ACO1423   0.0000
     4 C4A          1.9120    13.1220   -14.4590 C.ar         1 ACO1423   0.0000
     5 C5A          1.5150    13.4270   -15.8080 C.ar         1 ACO1423   0.0000
     6 C6A          2.2270    12.7490   -16.8750 C.ar         1 ACO1423   0.0000
     7 N6A          1.8660    12.9830   -18.1450 N.pl3        1 ACO1423   0.0000
     8 N7A          0.4780    14.2900   -15.7850 N.2          1 ACO1423   0.0000
     9 C8A          0.2760    14.5500   -14.4490 C.2          1 ACO1423   0.0000
    10 N9A          1.1470    13.8650   -13.6750 N.pl3        1 ACO1423   0.0000
    11 C1B          1.2030    13.8420   -12.2340 C.3          1 ACO1423   0.0000
    12 C2B          2.4820    14.3490   -11.6860 C.3          1 ACO1423   0.0000
    13 O2B          2.7320    13.7070   -10.3840 O.3          1 ACO1423   0.0000
    14 C3B          2.0410    15.7830   -11.4700 C.3          1 ACO1423   0.0000
    15 O3B          2.7960    16.5180   -10.4510 O.3          1 ACO1423   0.0000
    16 P3B          3.9990    17.4980   -10.8520 P.3          1 ACO1423   0.0000
    17 O7A          5.1240    16.5480   -11.0940 O.co2        1 ACO1423   0.0000
    18 O8A          3.6870    18.2270   -12.2000 O.co2        1 ACO1423  -1.0000
    19 O9A          4.1670    18.4000    -9.6470 O.co2        1 ACO1423  -1.0000
    20 C4B          0.6370    15.6690   -10.9190 C.3          1 ACO1423   0.0000
    21 O4B          0.1210    14.5770   -11.7010 O.3          1 ACO1423   0.0000
    22 C5B         -0.2950    16.9250   -10.9600 C.3          1 ACO1423   0.0000
    23 O5B         -0.3060    17.2670   -12.2890 O.3          1 ACO1423   0.0000
    24 P1A         -1.5130    18.1360   -12.9140 P.3          1 ACO1423   0.0000
    25 O1A         -0.8700    18.9950   -13.9450 O.co2        1 ACO1423   0.0000
    26 O2A         -2.3650    18.6860   -11.9080 O.co2        1 ACO1423  -1.0000
    27 O3A         -2.2940    16.9520   -13.7230 O.3          1 ACO1423   0.0000
    28 P2A         -3.3130    17.2140   -14.8940 P.3          1 ACO1423   0.0000
    29 O4A         -2.6120    17.0940   -16.1890 O.co2        1 ACO1423   0.0000
    30 O5A         -4.1160    18.4460   -14.6580 O.co2        1 ACO1423  -1.0000
    31 O6A         -4.3130    15.9460   -14.7290 O.3          1 ACO1423   0.0000
    32 CBP         -4.8850    13.6860   -15.1880 C.3          1 ACO1423   0.0000
    33 CCP         -3.7970    14.5720   -14.6000 C.3          1 ACO1423   0.0000
    34 CDP         -6.1990    13.9060   -14.4750 C.3          1 ACO1423   0.0000
    35 CEP         -4.4150    12.2180   -14.8820 C.3          1 ACO1423   0.0000
    36 CAP         -5.0470    13.8860   -16.7270 C.3          1 ACO1423   0.0000
    37 OAP         -3.8810    13.4420   -17.3950 O.3          1 ACO1423   0.0000
    38 C9P         -6.2450    13.2520   -17.3440 C.2          1 ACO1423   0.0000
    39 O9P         -7.3110    13.7510   -17.3330 O.2          1 ACO1423   0.0000
    40 N8P         -6.0360    12.0450   -17.8720 N.am         1 ACO1423   0.0000
    41 C7P         -7.1210    11.2790   -18.4760 C.3          1 ACO1423   0.0000
    42 C6P         -8.1300    10.6960   -17.5090 C.3          1 ACO1423   0.0000
    43 C5P         -7.4980    10.1190   -16.2480 C.2          1 ACO1423   0.0000
    44 O5P         -6.5650     9.2960   -16.3630 O.2          1 ACO1423   0.0000
    45 N4P         -7.9690    10.5160   -15.1050 N.am         1 ACO1423   0.0000
    46 C3P         -7.4840    10.0090   -13.8570 C.3          1 ACO1423   0.0000
    47 C2P         -8.4310     8.8900   -13.4750 C.3          1 ACO1423   0.0000
    48 S1P         -8.0800     8.3340   -11.7890 S.3          1 ACO1423   0.0000
    49 C           -9.4110     8.8940   -10.8470 C.2          1 ACO1423   0.0000
    50 O          -10.4270     9.4170   -11.3850 O.2          1 ACO1423   0.0000
    51 CH3         -9.3940     8.6070    -9.3620 C.3          1 ACO1423   0.0000
    52 H2A          4.3141    11.1140   -15.0589 H            1 ACO1423   0.0000
    53 H6A1         1.1108    13.6078   -18.3431 H            1 ACO1423   0.0000
    54 H6A2         2.3520    12.5327   -18.8940 H            1 ACO1423   0.0000
    55 H8A         -0.4264    15.1677   -14.0954 H            1 ACO1423   0.0000
    56 H1B          1.1005    12.8917   -11.9399 H            1 ACO1423   0.0000
    57 H2B          3.2476    14.2623   -12.3234 H            1 ACO1423   0.0000
    58 H7           3.7177    13.6302   -10.2340 H            1 ACO1423   0.0000
    59 H3B          2.0391    16.2841   -12.3354 H            1 ACO1423   0.0000
    60 H4B          0.7023    15.3642    -9.9688 H            1 ACO1423   0.0000
    61 H5B1         0.0784    17.6664   -10.4024 H            1 ACO1423   0.0000
    62 H5B2        -1.2153    16.6987   -10.6407 H            1 ACO1423   0.0000
    63 HCP1        -3.6396    14.3445   -13.6390 H            1 ACO1423   0.0000
    64 HCP2        -2.9440    14.4674   -15.1114 H            1 ACO1423   0.0000
    65 HDP1        -6.8990    13.3152   -14.8762 H            1 ACO1423   0.0000
    66 HDP2        -6.0930    13.6860   -13.5053 H            1 ACO1423   0.0000
    67 HDP3        -6.4746    14.8624   -14.5716 H            1 ACO1423   0.0000
    68 HEP1        -5.0869    11.5709   -15.2423 H            1 ACO1423   0.0000
    69 HEP2        -3.5289    12.0545   -15.3157 H            1 ACO1423   0.0000
    70 HEP3        -4.3301    12.0944   -13.8933 H            1 ACO1423   0.0000
    71 HAP         -5.1204    14.8701   -16.8885 H            1 ACO1423   0.0000
    72 H21         -3.2355    14.2011   -17.4791 H            1 ACO1423   0.0000
    73 H8P         -5.1148    11.6563   -17.8534 H            1 ACO1423   0.0000
    74 H7P1        -6.7148    10.5230   -18.9893 H            1 ACO1423   0.0000
    75 H7P2        -7.6110    11.8832   -19.1043 H            1 ACO1423   0.0000
    76 H6P1        -8.6304     9.9663   -17.9750 H            1 ACO1423   0.0000
    77 H6P2        -8.7671    11.4190   -17.2417 H            1 ACO1423   0.0000
    78 H4P         -8.6974    11.2011   -15.0961 H            1 ACO1423   0.0000
    79 H3P1        -7.4938    10.7272   -13.1612 H            1 ACO1423   0.0000
    80 H3P2        -6.5533     9.6582   -13.9609 H            1 ACO1423   0.0000
    81 H2P1        -8.3124     8.1248   -14.1078 H            1 ACO1423   0.0000
    82 H2P2        -9.3732     9.2213   -13.5254 H            1 ACO1423   0.0000
    83 HH31       -10.2185     8.9841    -8.9402 H            1 ACO1423   0.0000
    84 HH32        -9.3661     7.6184    -9.2139 H            1 ACO1423   0.0000
    85 HH33        -8.5862     9.0287    -8.9502 H            1 ACO1423   0.0000
@<TRIPOS>BOND
     1    1    2      ar
     2    1    6      ar
     3    2    3      ar
     4    3    4      ar
     5    4    5      ar
     6    4   10       1
     7    5    6      ar
     8    5    8       1
     9    6    7       1
    10    8    9       2
    11    9   10       1
    12   10   11       1
    13   11   12       1
    14   11   21       1
    15   12   13       1
    16   12   14       1
    17   14   15       1
    18   14   20       1
    19   15   16       1
    20   16   17      ar
    21   16   18      ar
    22   16   19      ar
    23   20   21       1
    24   20   22       1
    25   22   23       1
    26   23   24       1
    27   24   25      ar
    28   24   26      ar
    29   24   27       1
    30   27   28       1
    31   28   29      ar
    32   28   30      ar
    33   28   31       1
    34   31   33       1
    35   32   33       1
    36   32   34       1
    37   32   35       1
    38   32   36       1
    39   36   37       1
    40   36   38       1
    41   38   39       2
    42   38   40      am
    43   40   41       1
    44   41   42       1
    45   42   43       1
    46   43   44       2
    47   43   45      am
    48   45   46       1
    49   46   47       1
    50   47   48       1
    51   48   49       1
    52   49   50       2
    53   49   51       1
    54    2   52       1
    55    7   53       1
    56    7   54       1
    57    9   55       1
    58   11   56       1
    59   12   57       1
    60   13   58       1
    61   14   59       1
    62   51   85       1
    63   51   84       1
    64   20   60       1
    65   22   61       1
    66   22   62       1
    67   51   83       1
    68   47   82       1
    69   33   63       1
    70   33   64       1
    71   34   65       1
    72   34   66       1
    73   34   67       1
    74   35   68       1
    75   35   69       1
    76   35   70       1
    77   36   71       1
    78   37   72       1
    79   40   73       1
    80   41   74       1
    81   41   75       1
    82   42   76       1
    83   42   77       1
    84   45   78       1
    85   46   79       1
    86   46   80       1
    87   47   81       1
@<TRIPOS>SUBSTRUCTURE
     1 ACO1423     1 GROUP             4 A     ACO     0 **** ACO A1423
