@<TRIPOS>MOLECULE
1nlm_UD1_2_ligand
   64    66     1     0     0
SMALL
NO_CHARGES


@<TRIPOS>ATOM
     1 C1'         73.7600   -55.5820    18.7620 C.3          1 UD1402   0.0000
     2 C2'         72.3120   -56.0580    18.6490 C.3          1 UD1402   0.0000
     3 C3'         71.3270   -54.9140    18.9390 C.3          1 UD1402   0.0000
     4 C4'         71.6570   -54.1580    20.2210 C.3          1 UD1402   0.0000
     5 C5'         73.1310   -53.7450    20.2410 C.3          1 UD1402   0.0000
     6 C6'         73.5490   -53.1770    21.5900 C.3          1 UD1402   0.0000
     7 C7'         71.5720   -57.8040    17.1530 C.2          1 UD1402   0.0000
     8 C8'         70.8870   -58.4980    18.3380 C.3          1 UD1402   0.0000
     9 N2'         72.0660   -56.5780    17.3140 N.am         1 UD1402   0.0000
    10 O1'         74.0800   -54.6880    17.6910 O.3          1 UD1402   0.0000
    11 O3'         70.0030   -55.4560    19.1180 O.3          1 UD1402   0.0000
    12 O4'         70.8430   -52.9940    20.2900 O.3          1 UD1402   0.0000
    13 O5'         73.9540   -54.8940    20.0080 O.3          1 UD1402   0.0000
    14 O6'         73.5470   -54.1860    22.5910 O.3          1 UD1402   0.0000
    15 O7'         71.6640   -58.3570    16.0510 O.2          1 UD1402   0.0000
    16 N1          80.9380   -56.6460    22.1580 N.pl3        1 UD1402   0.0000
    17 C2          81.5030   -57.4980    23.0920 C.2          1 UD1402   0.0000
    18 N3          82.1670   -58.5770    22.5720 N.pl3        1 UD1402   0.0000
    19 C4          82.3150   -58.8980    21.2430 C.2          1 UD1402   0.0000
    20 C5          81.6860   -57.9870    20.3360 C.2          1 UD1402   0.0000
    21 C6          81.0330   -56.9160    20.8130 C.2          1 UD1402   0.0000
    22 O2          81.4190   -57.3170    24.2880 O.2          1 UD1402   0.0000
    23 O4          82.9770   -59.8880    20.9350 O.2          1 UD1402   0.0000
    24 C1B         80.2510   -55.4460    22.6590 C.3          1 UD1402   0.0000
    25 C2B         80.9690   -54.1410    22.3220 C.3          1 UD1402   0.0000
    26 O2'         82.0210   -53.8560    23.2210 O.3          1 UD1402   0.0000
    27 C3B         79.8190   -53.1490    22.4130 C.3          1 UD1402   0.0000
    28 C4B         78.6520   -53.9360    21.8310 C.3          1 UD1402   0.0000
    29 O4B         78.9820   -55.3450    22.0370 O.3          1 UD1402   0.0000
    30 O3B         79.5350   -52.8100    23.7690 O.3          1 UD1402   0.0000
    31 C5B         78.4120   -53.6700    20.3660 C.3          1 UD1402   0.0000
    32 O5B         77.4340   -52.6340    20.2150 O.3          1 UD1402   0.0000
    33 PA          76.8150   -52.2720    18.7910 P.3          1 UD1402   0.0000
    34 O1A         76.2280   -50.9240    18.9770 O.co2        1 UD1402   0.0000
    35 O2A         77.9240   -52.4300    17.8160 O.co2        1 UD1402  -1.0000
    36 O3A         75.6410   -53.2020    18.7120 O.3          1 UD1402   0.0000
    37 PB          75.5600   -54.1270    17.5230 P.3          1 UD1402   0.0000
    38 O1B         75.6160   -53.5480    16.1640 O.co2        1 UD1402   0.0000
    39 O2B         76.4360   -55.3240    17.4760 O.co2        1 UD1402  -1.0000
    40 H1'         74.3706   -56.3731    18.7241 H            1 UD1402   0.0000
    41 H2'         72.1605   -56.7901    19.3132 H            1 UD1402   0.0000
    42 H3'         71.3232   -54.2760    18.1690 H            1 UD1402   0.0000
    43 H4'         71.4661   -54.7431    21.0092 H            1 UD1402   0.0000
    44 H5'         73.2969   -53.0652    19.5267 H            1 UD1402   0.0000
    45 H6'1        72.9095   -52.4545    21.8528 H            1 UD1402   0.0000
    46 H6'2        74.4699   -52.7951    21.5127 H            1 UD1402   0.0000
    47 H8'1        70.5730   -59.4049    18.0570 H            1 UD1402   0.0000
    48 H8'2        71.5373   -58.5893    19.0922 H            1 UD1402   0.0000
    49 H8'3        70.1043   -57.9521    18.6370 H            1 UD1402   0.0000
    50 H11         72.2684   -56.0132    16.5140 H            1 UD1402   0.0000
    51 H12         69.3612   -54.7127    19.3067 H            1 UD1402   0.0000
    52 H13         69.8793   -53.2609    20.2929 H            1 UD1402   0.0000
    53 H6'         74.4657   -54.2758    22.9756 H            1 UD1402   0.0000
    54 H15         82.5904   -59.1993    23.2305 H            1 UD1402   0.0000
    55 H16         81.7329   -58.1480    19.3502 H            1 UD1402   0.0000
    56 H17         80.5987   -56.2901    20.1653 H            1 UD1402   0.0000
    57 H1B         80.1333   -55.5169    23.6495 H            1 UD1402   0.0000
    58 H2B         81.3186   -54.1747    21.3857 H            1 UD1402   0.0000
    59 H20         82.1332   -52.8654    23.2995 H            1 UD1402   0.0000
    60 H3B         80.0068   -52.3306    21.8699 H            1 UD1402   0.0000
    61 H4B         77.8218   -53.7164    22.3434 H            1 UD1402   0.0000
    62 H23         80.0813   -52.0159    24.0355 H            1 UD1402   0.0000
    63 H5B1        78.0814   -54.5053    19.9267 H            1 UD1402   0.0000
    64 H5B2        79.2682   -53.3836    19.9359 H            1 UD1402   0.0000
@<TRIPOS>BOND
     1    1    2       1
     2    1   10       1
     3    1   13       1
     4    2    3       1
     5    2    9       1
     6    3    4       1
     7    3   11       1
     8    4    5       1
     9    4   12       1
    10    5    6       1
    11    5   13       1
    12    6   14       1
    13    7    8       1
    14    7    9      am
    15    7   15       2
    16   10   37       1
    17   16   17       1
    18   16   21       1
    19   16   24       1
    20   17   18       1
    21   17   22       2
    22   18   19       1
    23   19   20       1
    24   19   23       2
    25   20   21       2
    26   24   25       1
    27   24   29       1
    28   25   26       1
    29   25   27       1
    30   27   28       1
    31   27   30       1
    32   28   29       1
    33   28   31       1
    34   31   32       1
    35   32   33       1
    36   33   34      ar
    37   33   35      ar
    38   33   36       1
    39   36   37       1
    40   37   38      ar
    41   37   39      ar
    42    1   40       1
    43    2   41       1
    44    3   42       1
    45    4   43       1
    46    5   44       1
    47    6   45       1
    48    6   46       1
    49    8   47       1
    50    8   48       1
    51    8   49       1
    52    9   50       1
    53   11   51       1
    54   12   52       1
    55   14   53       1
    56   18   54       1
    57   20   55       1
    58   21   56       1
    59   24   57       1
    60   25   58       1
    61   26   59       1
    62   27   60       1
    63   28   61       1
    64   30   62       1
    65   31   63       1
    66   31   64       1
@<TRIPOS>SUBSTRUCTURE
     1 UD1402      1 GROUP             4 B     UD1     0 **** UD1 B 402
