@<TRIPOS>MOLECULE
3gqo_APR_4_ligand
   57    60     1     0     0
SMALL
NO_CHARGES


@<TRIPOS>ATOM
     1 N1          -9.9490     9.3300    34.5180 N.ar         1 APR167   0.0000
     2 C2         -11.1040     9.6460    35.1450 C.ar         1 APR167   0.0000
     3 N3         -11.1680    10.4080    36.2530 N.ar         1 APR167   0.0000
     4 C4         -10.0300    10.9130    36.7880 C.ar         1 APR167   0.0000
     5 C5          -8.7300    10.6150    36.1680 C.ar         1 APR167   0.0000
     6 C6          -8.7460     9.7620    34.9640 C.ar         1 APR167   0.0000
     7 N6          -7.6010     9.4320    34.3360 N.pl3        1 APR167   0.0000
     8 N7          -7.8000    11.2260    36.9110 N.2          1 APR167   0.0000
     9 C8          -8.4380    11.8740    37.9170 C.2          1 APR167   0.0000
    10 N9          -9.7690    11.6800    37.8370 N.pl3        1 APR167   0.0000
    11 C1'        -10.8410    12.2040    38.7130 C.3          1 APR167   0.0000
    12 C2'        -10.3480    12.7670    40.0220 C.3          1 APR167   0.0000
    13 O2'        -10.3180    11.7300    41.0100 O.3          1 APR167   0.0000
    14 C3'        -11.3780    13.8590    40.2830 C.3          1 APR167   0.0000
    15 O3'        -12.5730    13.3820    40.9300 O.3          1 APR167   0.0000
    16 O4'        -11.4470    13.2930    38.0260 O.3          1 APR167   0.0000
    17 C4'        -11.8020    14.3390    38.9130 C.3          1 APR167   0.0000
    18 C5'        -11.1050    15.6170    38.4890 C.3          1 APR167   0.0000
    19 O5'         -9.7350    15.4930    38.8130 O.3          1 APR167   0.0000
    20 PA          -8.6130    16.4440    38.1690 P.3          1 APR167   0.0000
    21 O1A         -8.1940    15.8370    36.8700 O.co2        1 APR167   0.0000
    22 O2A         -7.5610    16.6150    39.2430 O.co2        1 APR167  -1.0000
    23 O3A         -9.4010    17.8090    37.8610 O.3          1 APR167   0.0000
    24 PB          -9.4790    19.1520    38.7510 P.3          1 APR167   0.0000
    25 O1B        -10.4960    20.0090    38.0400 O.co2        1 APR167   0.0000
    26 O2B         -9.5550    18.8930    40.2240 O.co2        1 APR167  -1.0000
    27 O5D         -8.0560    19.8280    38.5790 O.3          1 APR167   0.0000
    28 C5D         -7.6790    20.3950    37.3320 C.3          1 APR167   0.0000
    29 O4D         -5.4510    19.3790    37.5140 O.3          1 APR167   0.0000
    30 O1D         -4.1780    18.0670    36.0070 O.3          1 APR167   0.0000
    31 C1D         -4.4670    19.3760    36.4760 C.3          1 APR167   0.0000
    32 O2D         -4.1970    20.5750    34.3580 O.3          1 APR167   0.0000
    33 C2D         -5.1190    20.1800    35.3690 C.3          1 APR167   0.0000
    34 O3D         -4.5370    22.0710    36.6700 O.3          1 APR167   0.0000
    35 C3D         -5.6470    21.3280    36.1850 C.3          1 APR167   0.0000
    36 C4D         -6.1760    20.6190    37.4130 C.3          1 APR167   0.0000
    37 H1         -11.9591     9.2939    34.7644 H            1 APR167   0.0000
    38 H2          -6.7251     9.7643    34.6859 H            1 APR167   0.0000
    39 H3          -7.6268     8.8547    33.5199 H            1 APR167   0.0000
    40 H4          -7.9836    12.4202    38.6207 H            1 APR167   0.0000
    41 H1'        -11.5198    11.4899    38.8841 H            1 APR167   0.0000
    42 H2'         -9.4382    13.1664    39.9087 H            1 APR167   0.0000
    43 H7          -9.9908    12.1053    41.8773 H            1 APR167   0.0000
    44 H3'        -10.9707    14.6075    40.8064 H            1 APR167   0.0000
    45 H9         -13.2032    14.1455    41.0709 H            1 APR167   0.0000
    46 H4'        -12.7927    14.4739    38.8952 H            1 APR167   0.0000
    47 H5'1       -11.4998    16.3966    38.9751 H            1 APR167   0.0000
    48 H5'2       -11.2103    15.7505    37.5036 H            1 APR167   0.0000
    49 H5D1        -8.1528    21.2637    37.1874 H            1 APR167   0.0000
    50 H5D2        -7.8974    19.7677    36.5845 H            1 APR167   0.0000
    51 H1D         -5.0117    17.6517    35.6430 H            1 APR167   0.0000
    52 H16         -3.6306    19.8269    36.7877 H            1 APR167   0.0000
    53 H2D         -4.4834    20.1946    33.4786 H            1 APR167   0.0000
    54 H18         -5.8753    19.6647    34.9659 H            1 APR167   0.0000
    55 H3D         -4.7746    22.4920    37.5454 H            1 APR167   0.0000
    56 H20         -6.3306    21.8826    35.7105 H            1 APR167   0.0000
    57 H4D         -5.9758    21.1764    38.2187 H            1 APR167   0.0000
@<TRIPOS>BOND
     1    1    2      ar
     2    1    6      ar
     3    2    3      ar
     4    3    4      ar
     5    4    5      ar
     6    4   10       1
     7    5    6      ar
     8    5    8       1
     9    6    7       1
    10    8    9       2
    11    9   10       1
    12   10   11       1
    13   11   12       1
    14   11   16       1
    15   12   13       1
    16   12   14       1
    17   14   15       1
    18   14   17       1
    19   16   17       1
    20   17   18       1
    21   18   19       1
    22   19   20       1
    23   20   21      ar
    24   20   22      ar
    25   20   23       1
    26   23   24       1
    27   24   25      ar
    28   24   26      ar
    29   24   27       1
    30   27   28       1
    31   28   36       1
    32   29   31       1
    33   29   36       1
    34   30   31       1
    35   31   33       1
    36   32   33       1
    37   33   35       1
    38   34   35       1
    39   35   36       1
    40    2   37       1
    41    7   38       1
    42    7   39       1
    43    9   40       1
    44   11   41       1
    45   12   42       1
    46   13   43       1
    47   14   44       1
    48   15   45       1
    49   17   46       1
    50   18   47       1
    51   18   48       1
    52   36   57       1
    53   35   56       1
    54   28   49       1
    55   28   50       1
    56   30   51       1
    57   31   52       1
    58   32   53       1
    59   33   54       1
    60   34   55       1
@<TRIPOS>SUBSTRUCTURE
     1 APR167      1 GROUP             4 D     APR     0 **** APR D 167
