@<TRIPOS>MOLECULE
./coach420/2v8l/ligand.pdb
 77 81 0 0 0
SMALL
GASTEIGER

@<TRIPOS>ATOM
      1 ZN          5.8220   11.0750   37.0930 Zn    1107  ZN1107      0.0000
      2  C2        -7.0210   -0.5540   28.0450 C.3   1108  GLC1108     0.0000
      3  C3        -6.6450   -0.9950   26.6280 C.3   1108  GLC1108     0.0000
      4  C4        -6.0700   -2.4030   26.6010 C.3   1108  GLC1108     0.0000
      5  C5        -7.0220   -3.3640   27.3580 C.3   1108  GLC1108     0.0000
      6  C6        -6.4920   -4.7810   27.4940 C.3   1108  GLC1108     0.0000
      7  O2        -7.7050    0.6950   27.9490 O.3   1108  GLC1108     0.0000
      8  O3        -5.7080   -0.0840   26.0690 O.3   1108  GLC1108     0.0000
      9  O4        -5.9820   -2.8100   25.2250 O.3   1108  GLC1108     0.0000
     10  O5        -7.2790   -2.8700   28.6980 O.3   1108  GLC1108     0.0000
     11  O6        -5.4810   -4.8460   28.4760 O.3   1108  GLC1108     0.0000
     12  C1       -13.2480   -1.2830   28.7700 C.3   1109  GLC1109     0.0000
     13  C2       -12.5170    0.0210   28.4860 C.3   1109  GLC1109     0.0000
     14  C3       -11.1340   -0.2720   27.9080 C.3   1109  GLC1109     0.0000
     15  C4       -10.3310   -1.2350   28.7970 C.3   1109  GLC1109     0.0000
     16  C5       -11.1760   -2.4760   29.1200 C.3   1109  GLC1109     0.0000
     17  C6       -10.5440   -3.3910   30.1370 C.3   1109  GLC1109     0.0000
     18  O2       -13.2550    0.7720   27.5340 O.3   1109  GLC1109     0.0000
     19  O3       -10.4320    0.9510   27.7390 O.3   1109  GLC1109     0.0000
     20  O4        -9.1580   -1.6510   28.0710 O.3   1109  GLC1109     0.0000
     21  O5       -12.4680   -2.0960   29.6430 O.3   1109  GLC1109     0.0000
     22  O6       -11.0940   -4.6920   30.0280 O.3   1109  GLC1109     0.0000
     23  C1       -16.6650   -3.8000   25.6390 C.3   1110  GLC1110     0.0000
     24  C2       -16.5660   -2.2910   25.4150 C.3   1110  GLC1110     0.0000
     25  C3       -15.1720   -1.8180   25.8240 C.3   1110  GLC1110     0.0000
     26  C4       -14.8920   -2.2040   27.2740 C.3   1110  GLC1110     0.0000
     27  C5       -15.1540   -3.7060   27.5160 C.3   1110  GLC1110     0.0000
     28  C6       -15.1230   -4.0670   28.9840 C.3   1110  GLC1110     0.0000
     29  O2       -16.7960   -1.9780   24.0470 O.3   1110  GLC1110     0.0000
     30  O3       -15.0790   -0.4030   25.6650 O.3   1110  GLC1110     0.0000
     31  O4       -13.5110   -1.9220   27.5600 O.3   1110  GLC1110     0.0000
     32  O5       -16.4560   -4.0900   27.0140 O.3   1110  GLC1110     0.0000
     33  O6       -14.4090   -5.2770   29.1950 O.3   1110  GLC1110     0.0000
     34  C1       -15.4490   -7.4310   22.0090 C.3   1111  GLC1111     0.0000
     35  C2       -16.4280   -6.3120   21.6550 C.3   1111  GLC1111     0.0000
     36  C3       -16.1780   -5.1170   22.5740 C.3   1111  GLC1111     0.0000
     37  C4       -16.2210   -5.5310   24.0400 C.3   1111  GLC1111     0.0000
     38  C5       -15.3610   -6.7690   24.3160 C.3   1111  GLC1111     0.0000
     39  C6       -15.6320   -7.3340   25.6870 C.3   1111  GLC1111     0.0000
     40  O2       -16.2420   -5.9250   20.3060 O.3   1111  GLC1111     0.0000
     41  O3       -17.1580   -4.1090   22.3460 O.3   1111  GLC1111     0.0000
     42  O4       -15.7250   -4.4420   24.8300 O.3   1111  GLC1111     0.0000
     43  O5       -15.6530   -7.8100   23.3660 O.3   1111  GLC1111     0.0000
     44  O6       -14.4220   -7.7080   26.3210 O.3   1111  GLC1111     0.0000
     45  C1       -10.7700   -8.5030   19.7910 C.3   1112  GLC1112     0.0000
     46  C2       -11.7990   -7.7580   18.9350 C.3   1112  GLC1112     0.0000
     47  C3       -12.7010   -6.9180   19.8400 C.3   1112  GLC1112     0.0000
     48  C4       -13.3580   -7.8120   20.8940 C.3   1112  GLC1112     0.0000
     49  C5       -12.2730   -8.5810   21.6660 C.3   1112  GLC1112     0.0000
     50  C6       -12.8130   -9.5900   22.6690 C.3   1112  GLC1112     0.0000
     51  O2       -11.1180   -6.9240   18.0290 O.3   1112  GLC1112     0.0000
     52  O3       -13.7010   -6.2630   19.0710 O.3   1112  GLC1112     0.0000
     53  O4       -14.1350   -6.9990   21.7880 O.3   1112  GLC1112     0.0000
     54  O5       -11.4480   -9.3200   20.7320 O.3   1112  GLC1112     0.0000
     55  O6       -13.5070  -10.6290   22.0020 O.3   1112  GLC1112     0.0000
     56  C1        -6.0210   -6.9100   21.3300 C.3   1113  GLC1113     0.0000
     57  C2        -6.3540   -6.7810   19.8420 C.3   1113  GLC1113     0.0000
     58  C3        -7.8620   -6.6920   19.6880 C.3   1113  GLC1113     0.0000
     59  C4        -8.5590   -7.8610   20.3770 C.3   1113  GLC1113     0.0000
     60  C5        -8.0550   -8.1060   21.8020 C.3   1113  GLC1113     0.0000
     61  C6        -8.5050   -9.4750   22.3230 C.3   1113  GLC1113     0.0000
     62  O2        -5.7640   -5.6020   19.3190 O.3   1113  GLC1113     0.0000
     63  O3        -8.2030   -6.7110   18.3140 O.3   1113  GLC1113     0.0000
     64  O4        -9.9490   -7.5660   20.4290 O.3   1113  GLC1113     0.0000
     65  O5        -6.6130   -8.0950   21.8410 O.3   1113  GLC1113     0.0000
     66  O6        -8.1630   -9.6440   23.6910 O.3   1113  GLC1113     0.0000
     67  C1        -4.7140   -3.1180   24.7330 C.3   1114  GLC1114     0.0000
     68  C2        -4.6370   -2.7130   23.2550 C.3   1114  GLC1114     0.0000
     69  C3        -5.6860   -3.5190   22.4770 C.3   1114  GLC1114     0.0000
     70  C4        -5.4140   -5.0100   22.6610 C.3   1114  GLC1114     0.0000
     71  C5        -5.3840   -5.3530   24.1550 C.3   1114  GLC1114     0.0000
     72  C6        -4.9790   -6.7920   24.4330 C.3   1114  GLC1114     0.0000
     73  O2        -4.8930   -1.3210   23.1210 O.3   1114  GLC1114     0.0000
     74  O3        -5.6590   -3.1820   21.0920 O.3   1114  GLC1114     0.0000
     75  O4        -6.4600   -5.7670   22.0150 O.3   1114  GLC1114     0.0000
     76  O5        -4.4470   -4.4980   24.8530 O.3   1114  GLC1114     0.0000
     77  O6        -3.6380   -7.0420   24.0530 O.3   1114  GLC1114     0.0000
@<TRIPOS>BOND
     1     2     3    1
     2     2     7    1
     3     3     8    1
     4     3     4    1
     5     4     9    1
     6     4     5    1
     7     5     6    1
     8     5    10    1
     9     6    11    1
    10     9    67    1
    11    12    31    1
    12    12    13    1
    13    12    21    1
    14    13    18    1
    15    13    14    1
    16    14    19    1
    17    14    15    1
    18    15    20    1
    19    15    16    1
    20    16    21    1
    21    16    17    1
    22    17    22    1
    23    23    42    1
    24    23    24    1
    25    23    32    1
    26    24    29    1
    27    24    25    1
    28    25    30    1
    29    25    26    1
    30    26    27    1
    31    26    31    1
    32    27    32    1
    33    27    28    1
    34    28    33    1
    35    34    35    1
    36    34    53    1
    37    34    43    1
    38    35    40    1
    39    35    36    1
    40    36    41    1
    41    36    37    1
    42    37    38    1
    43    37    42    1
    44    38    43    1
    45    38    39    1
    46    39    44    1
    47    45    46    1
    48    45    64    1
    49    45    54    1
    50    46    51    1
    51    46    47    1
    52    47    52    1
    53    47    48    1
    54    48    49    1
    55    48    53    1
    56    49    54    1
    57    49    50    1
    58    50    55    1
    59    56    57    1
    60    56    65    1
    61    56    75    1
    62    57    62    1
    63    57    58    1
    64    58    63    1
    65    58    59    1
    66    59    64    1
    67    59    60    1
    68    60    65    1
    69    60    61    1
    70    61    66    1
    71    67    68    1
    72    67    76    1
    73    68    69    1
    74    68    73    1
    75    69    74    1
    76    69    70    1
    77    70    75    1
    78    70    71    1
    79    71    72    1
    80    71    76    1
    81    72    77    1
