@<TRIPOS>MOLECULE
2c5l_GTP_1_ligand
   44    46     1     0     0
SMALL
NO_CHARGES


@<TRIPOS>ATOM
     1 PG          17.8630    26.1070    17.5890 P.3          1 GTP1167   0.0000
     2 O1G         16.9000    27.2630    17.4060 O.co2        1 GTP1167   0.0000
     3 O2G         17.4790    25.3760    18.8580 O.co2        1 GTP1167  -1.0000
     4 O3G         17.9040    25.2270    16.4180 O.co2        1 GTP1167  -1.0000
     5 O3B         19.3190    26.7580    17.9120 O.3          1 GTP1167   0.0000
     6 PB          20.7320    25.9800    17.9400 P.3          1 GTP1167   0.0000
     7 O1B         20.9390    25.4160    19.3040 O.co2        1 GTP1167   0.0000
     8 O2B         20.8490    25.0070    16.7860 O.co2        1 GTP1167  -1.0000
     9 O3A         21.7810    27.1880    17.7580 O.3          1 GTP1167   0.0000
    10 PA          22.7160    27.5430    16.4990 P.3          1 GTP1167   0.0000
    11 O1A         23.6590    26.4030    16.3470 O.co2        1 GTP1167   0.0000
    12 O2A         21.8930    27.9010    15.3130 O.co2        1 GTP1167  -1.0000
    13 O5'         23.5410    28.8110    17.0950 O.3          1 GTP1167   0.0000
    14 C5'         22.8880    30.0180    17.5440 C.3          1 GTP1167   0.0000
    15 C4'         23.8620    31.1890    17.3840 C.3          1 GTP1167   0.0000
    16 O4'         24.9950    30.9510    18.2040 O.3          1 GTP1167   0.0000
    17 C3'         24.4080    31.3230    15.9660 C.3          1 GTP1167   0.0000
    18 O3'         24.4720    32.6940    15.6010 O.3          1 GTP1167   0.0000
    19 C2'         25.7920    30.6820    16.0100 C.3          1 GTP1167   0.0000
    20 O2'         26.7330    31.2690    15.1450 O.3          1 GTP1167   0.0000
    21 C1'         26.2020    30.9850    17.4470 C.3          1 GTP1167   0.0000
    22 N9          27.1090    29.9800    18.0110 N.pl3        1 GTP1167   0.0000
    23 C8          26.8780    28.6180    18.0890 C.2          1 GTP1167   0.0000
    24 N7          27.9390    28.0540    18.7100 N.2          1 GTP1167   0.0000
    25 C5          28.8210    29.0540    19.0310 C.2          1 GTP1167   0.0000
    26 C6          30.0650    29.0320    19.6530 C.2          1 GTP1167   0.0000
    27 O6          30.6000    27.9680    20.0540 O.2          1 GTP1167   0.0000
    28 N1          30.7370    30.2350    19.8460 N.pl3        1 GTP1167   0.0000
    29 C2          30.1840    31.4450    19.4120 C.2          1 GTP1167   0.0000
    30 N2          30.8750    32.5660    19.6170 N.pl3        1 GTP1167   0.0000
    31 N3          28.9700    31.4660    18.7650 N.2          1 GTP1167   0.0000
    32 C4          28.2970    30.2790    18.5910 C.2          1 GTP1167   0.0000
    33 H5'1        22.6297    29.9236    18.5054 H            1 GTP1167   0.0000
    34 H5'2        22.0695    30.1830    16.9936 H            1 GTP1167   0.0000
    35 H4'         23.4168    32.0413    17.6586 H            1 GTP1167   0.0000
    36 H3'         23.8218    30.8262    15.3260 H            1 GTP1167   0.0000
    37 H5          24.8305    32.7750    14.6710 H            1 GTP1167   0.0000
    38 H2'         25.7332    29.6956    15.8564 H            1 GTP1167   0.0000
    39 H7          26.7009    30.8104    14.2569 H            1 GTP1167   0.0000
    40 H1'         26.6174    31.8930    17.5022 H            1 GTP1167   0.0000
    41 H9          26.0708    28.1366    17.7473 H            1 GTP1167   0.0000
    42 H10         31.6274    30.2349    20.3011 H            1 GTP1167   0.0000
    43 H11         30.5032    33.4445    19.3169 H            1 GTP1167   0.0000
    44 H12         31.7653    32.5287    20.0709 H            1 GTP1167   0.0000
@<TRIPOS>BOND
     1    1    2      ar
     2    1    3      ar
     3    1    4      ar
     4    1    5       1
     5    5    6       1
     6    6    7      ar
     7    6    8      ar
     8    6    9       1
     9    9   10       1
    10   10   11      ar
    11   10   12      ar
    12   10   13       1
    13   13   14       1
    14   14   15       1
    15   15   16       1
    16   15   17       1
    17   16   21       1
    18   17   18       1
    19   17   19       1
    20   19   20       1
    21   19   21       1
    22   21   22       1
    23   22   23       1
    24   22   32       1
    25   23   24       2
    26   24   25       1
    27   25   26       1
    28   25   32       2
    29   26   27       2
    30   26   28       1
    31   28   29       1
    32   29   30       1
    33   29   31       2
    34   31   32       1
    35   30   44       1
    36   30   43       1
    37   28   42       1
    38   23   41       1
    39   14   33       1
    40   14   34       1
    41   15   35       1
    42   17   36       1
    43   18   37       1
    44   19   38       1
    45   20   39       1
    46   21   40       1
@<TRIPOS>SUBSTRUCTURE
     1 GTP1167     1 GROUP             4 A     GTP     0 **** GTP A1167
