@<TRIPOS>MOLECULE
1got_GDP_1_ligand
   41    43     1     0     0
SMALL
NO_CHARGES


@<TRIPOS>ATOM
     1 PB          14.5720    34.3110    22.0380 P.3          1 GDP355   0.0000
     2 O1B         15.1110    34.7940    23.3290 O.co2        1 GDP355   0.0000
     3 O2B         14.9340    34.9630    20.7900 O.co2        1 GDP355  -1.0000
     4 O3B         14.6890    32.7860    21.9520 O.co2        1 GDP355  -1.0000
     5 O3A         12.9780    34.3740    22.2650 O.3          1 GDP355   0.0000
     6 PA          11.8980    34.9800    21.2030 P.3          1 GDP355   0.0000
     7 O1A         12.0800    36.4180    21.1070 O.co2        1 GDP355   0.0000
     8 O2A         11.9690    34.1350    20.0040 O.co2        1 GDP355  -1.0000
     9 O5'         10.6270    34.6320    22.1480 O.3          1 GDP355   0.0000
    10 C5'         10.0820    33.2930    22.2140 C.3          1 GDP355   0.0000
    11 C4'          8.5260    33.2860    22.0150 C.3          1 GDP355   0.0000
    12 O4'          7.8260    33.9680    23.0360 O.3          1 GDP355   0.0000
    13 C3'          8.0570    33.9500    20.7090 C.3          1 GDP355   0.0000
    14 O3'          6.9780    33.2240    20.1220 O.3          1 GDP355   0.0000
    15 C2'          7.6830    35.3330    21.1290 C.3          1 GDP355   0.0000
    16 O2'          6.8170    35.9370    20.1970 O.3          1 GDP355   0.0000
    17 C1'          7.1100    35.0830    22.4670 C.3          1 GDP355   0.0000
    18 N9           7.2500    36.2470    23.3470 N.pl3        1 GDP355   0.0000
    19 C8           8.3310    37.0060    23.6650 C.2          1 GDP355   0.0000
    20 N7           8.1420    37.8950    24.5840 N.2          1 GDP355   0.0000
    21 C5           6.8090    37.7020    24.9240 C.2          1 GDP355   0.0000
    22 C6           5.9840    38.3710    25.8800 C.2          1 GDP355   0.0000
    23 O6           6.2650    39.2840    26.6560 O.2          1 GDP355   0.0000
    24 N1           4.6840    37.8540    25.8940 N.2          1 GDP355   1.0000
    25 C2           4.2220    36.8360    25.0830 C.2          1 GDP355   0.0000
    26 N2           2.9480    36.4830    25.2350 N.pl3        1 GDP355   0.0000
    27 N3           4.9880    36.2070    24.1830 N.pl3        1 GDP355   0.0000
    28 C4           6.2660    36.6890    24.1650 C.2          1 GDP355   0.0000
    29 H5'1        10.2955    32.9005    23.1086 H            1 GDP355   0.0000
    30 H5'2        10.5024    32.7369    21.4971 H            1 GDP355   0.0000
    31 H4'          8.2176    32.3348    22.0084 H            1 GDP355   0.0000
    32 H3'          8.8200    33.9924    20.0640 H            1 GDP355   0.0000
    33 H5           6.3895    33.8536    19.6148 H            1 GDP355   0.0000
    34 H2'          8.5104    35.8871    21.2206 H            1 GDP355   0.0000
    35 H7           7.3551    36.4230    19.5083 H            1 GDP355   0.0000
    36 H1'          6.1424    34.8472    22.3769 H            1 GDP355   0.0000
    37 H9           9.2165    36.8846    23.2166 H            1 GDP355   0.0000
    38 H10          4.0372    38.2538    26.5435 H            1 GDP355   0.0000
    39 H11          2.5614    35.7514    24.6734 H            1 GDP355   0.0000
    40 H12          2.3772    36.9493    25.9108 H            1 GDP355   0.0000
    41 H13          4.6621    35.4692    23.5919 H            1 GDP355   0.0000
@<TRIPOS>BOND
     1    1    2      ar
     2    1    3      ar
     3    1    4      ar
     4    1    5       1
     5    5    6       1
     6    6    7      ar
     7    6    8      ar
     8    6    9       1
     9    9   10       1
    10   10   11       1
    11   11   12       1
    12   11   13       1
    13   12   17       1
    14   13   14       1
    15   13   15       1
    16   15   16       1
    17   15   17       1
    18   17   18       1
    19   18   19       1
    20   18   28       1
    21   19   20       2
    22   20   21       1
    23   21   22       1
    24   21   28       2
    25   22   23       2
    26   22   24       1
    27   24   25       2
    28   25   26       1
    29   25   27       1
    30   27   28       1
    31   26   40       1
    32   26   39       1
    33   24   38       1
    34   10   29       1
    35   10   30       1
    36   11   31       1
    37   13   32       1
    38   14   33       1
    39   15   34       1
    40   16   35       1
    41   17   36       1
    42   19   37       1
    43   27   41       1
@<TRIPOS>SUBSTRUCTURE
     1 GDP355      1 GROUP             4 G     GDP     0 **** GDP G 355
