@<TRIPOS>MOLECULE
2i02_FMN_1_ligand
   50    52     1     0     0
SMALL
NO_CHARGES


@<TRIPOS>ATOM
     1 N1          28.0690    36.2930    17.0650 N.2          1 FMN200   0.0000
     2 C2          29.2310    35.7290    17.5540 C.2          1 FMN200   0.0000
     3 O2          29.5470    35.9270    18.7700 O.2          1 FMN200   0.0000
     4 N3          29.9670    34.9470    16.6520 N.pl3        1 FMN200   0.0000
     5 C4          29.5640    34.7270    15.3150 C.2          1 FMN200   0.0000
     6 O4          30.0940    33.8540    14.5930 O.2          1 FMN200   0.0000
     7 C4A         28.3990    35.3330    14.8490 C.2          1 FMN200   0.0000
     8 N5          27.9580    35.1530    13.5410 N.2          1 FMN200   0.0000
     9 C5A         26.7730    35.7720    13.1410 C.ar         1 FMN200   0.0000
    10 C6          26.3280    35.5840    11.8330 C.ar         1 FMN200   0.0000
    11 C7          25.1360    36.1740    11.3880 C.ar         1 FMN200   0.0000
    12 C7M         24.4540    35.5780    10.1760 C.3          1 FMN200   0.0000
    13 C8          24.4180    36.9850    12.2740 C.ar         1 FMN200   0.0000
    14 C8M         23.0950    37.5490    11.8880 C.3          1 FMN200   0.0000
    15 C9          24.8550    37.1840    13.5780 C.ar         1 FMN200   0.0000
    16 C9A         26.0240    36.5670    14.0360 C.ar         1 FMN200   0.0000
    17 N10         26.4640    36.7100    15.3580 N.pl3        1 FMN200   0.0000
    18 C10         27.6580    36.1150    15.7460 C.2          1 FMN200   0.0000
    19 C1'         25.6960    37.3850    16.4770 C.3          1 FMN200   0.0000
    20 C2'         25.0670    36.3670    17.4560 C.3          1 FMN200   0.0000
    21 O2'         23.9990    35.7670    16.7460 O.3          1 FMN200   0.0000
    22 C3'         24.6300    37.0270    18.7720 C.3          1 FMN200   0.0000
    23 O3'         23.5920    38.0420    18.6510 O.3          1 FMN200   0.0000
    24 C4'         25.7880    37.7820    19.4510 C.3          1 FMN200   0.0000
    25 O4'         26.9620    36.9940    19.5530 O.3          1 FMN200   0.0000
    26 C5'         25.4200    38.2500    20.8550 C.3          1 FMN200   0.0000
    27 O5'         25.0060    37.1370    21.5980 O.3          1 FMN200   0.0000
    28 P           25.0670    37.1260    23.2050 P.3          1 FMN200   0.0000
    29 O1P         25.6840    35.8140    23.4760 O.co2        1 FMN200   0.0000
    30 O2P         25.8400    38.2980    23.7890 O.co2        1 FMN200  -1.0000
    31 O3P         23.6650    37.2190    23.7850 O.co2        1 FMN200  -1.0000
    32 H1          30.8164    34.5254    16.9694 H            1 FMN200   0.0000
    33 H2          26.8653    35.0216    11.2045 H            1 FMN200   0.0000
    34 H7M1        23.6223    36.0951     9.9736 H            1 FMN200   0.0000
    35 H7M2        25.0722    35.6205     9.3911 H            1 FMN200   0.0000
    36 H7M3        24.2167    34.6246    10.3622 H            1 FMN200   0.0000
    37 H8M1        22.7343    38.0986    12.6415 H            1 FMN200   0.0000
    38 H8M2        23.2017    38.1243    11.0771 H            1 FMN200   0.0000
    39 H8M3        22.4606    36.8028    11.6862 H            1 FMN200   0.0000
    40 H9          24.3302    37.7723    14.1932 H            1 FMN200   0.0000
    41 H1'1        24.9661    37.9393    16.0770 H            1 FMN200   0.0000
    42 H1'2        26.3223    37.9755    16.9859 H            1 FMN200   0.0000
    43 H2'         25.7465    35.6632    17.6633 H            1 FMN200   0.0000
    44 H13         24.3333    34.9586    16.2615 H            1 FMN200   0.0000
    45 H3'         24.3069    36.3137    19.3940 H            1 FMN200   0.0000
    46 H15         23.9153    38.7805    18.0593 H            1 FMN200   0.0000
    47 H4'         26.0006    38.5884    18.8992 H            1 FMN200   0.0000
    48 H17         27.2635    36.7252    18.6382 H            1 FMN200   0.0000
    49 H5'1        24.6772    38.9176    20.8046 H            1 FMN200   0.0000
    50 H5'2        26.2163    38.6696    21.2906 H            1 FMN200   0.0000
@<TRIPOS>BOND
     1    1    2       1
     2    1   18       2
     3    2    3       2
     4    2    4       1
     5    4    5       1
     6    5    6       2
     7    5    7       1
     8    7    8       2
     9    7   18       1
    10    8    9       1
    11    9   10      ar
    12    9   16      ar
    13   10   11      ar
    14   11   12       1
    15   11   13      ar
    16   13   14       1
    17   13   15      ar
    18   15   16      ar
    19   16   17       1
    20   17   18       1
    21   17   19       1
    22   19   20       1
    23   20   21       1
    24   20   22       1
    25   22   23       1
    26   22   24       1
    27   24   25       1
    28   24   26       1
    29   26   27       1
    30   27   28       1
    31   28   29      ar
    32   28   30      ar
    33   28   31      ar
    34    4   32       1
    35   10   33       1
    36   12   34       1
    37   12   35       1
    38   12   36       1
    39   14   37       1
    40   14   38       1
    41   14   39       1
    42   15   40       1
    43   19   41       1
    44   19   42       1
    45   20   43       1
    46   21   44       1
    47   22   45       1
    48   23   46       1
    49   24   47       1
    50   25   48       1
    51   26   49       1
    52   26   50       1
@<TRIPOS>SUBSTRUCTURE
     1 FMN200      1 GROUP             4 A     FMN     0 **** FMN A 200
