@<TRIPOS>MOLECULE
4wec_NAD_2_ligand
   70    74     1     0     0
SMALL
NO_CHARGES


@<TRIPOS>ATOM
     1 PA          26.5770   -38.1300    18.9230 P.3          1 NAD301   0.0000
     2 O1A         28.0160   -37.8910    18.4730 O.co2        1 NAD301   0.0000
     3 O2A         26.5410   -38.6650    20.3760 O.co2        1 NAD301  -1.0000
     4 O5B         25.8380   -39.2250    17.8860 O.3          1 NAD301   0.0000
     5 C5B         26.0570   -39.0050    16.5180 C.3          1 NAD301   0.0000
     6 C4B         25.8000   -40.3780    15.7480 C.3          1 NAD301   0.0000
     7 O4B         25.7530   -40.1440    14.4790 O.3          1 NAD301   0.0000
     8 C3B         26.9730   -41.3550    15.9930 C.3          1 NAD301   0.0000
     9 O3B         26.4570   -42.5900    16.3740 O.3          1 NAD301   0.0000
    10 C2B         27.7130   -41.3990    14.6600 C.3          1 NAD301   0.0000
    11 O2B         28.3470   -42.7570    14.4480 O.3          1 NAD301   0.0000
    12 C1B         26.7670   -41.1760    13.7870 C.3          1 NAD301   0.0000
    13 N9A         27.2550   -40.5690    12.5580 N.pl3        1 NAD301   0.0000
    14 C8A         28.2200   -39.6190    12.4920 C.2          1 NAD301   0.0000
    15 N7A         28.3850   -39.3080    11.1950 N.2          1 NAD301   0.0000
    16 C5A         27.5340   -40.0550    10.4690 C.ar         1 NAD301   0.0000
    17 C6A         27.2920   -40.1390     9.1340 C.ar         1 NAD301   0.0000
    18 N6A         27.8440   -39.4670     7.9490 N.pl3        1 NAD301   0.0000
    19 N1A         26.3750   -40.9860     8.6720 N.ar         1 NAD301   0.0000
    20 C2A         25.6770   -41.7540     9.5430 C.ar         1 NAD301   0.0000
    21 N3A         25.9050   -41.6760    10.8710 N.ar         1 NAD301   0.0000
    22 C4A         26.8320   -40.8310    11.3230 C.ar         1 NAD301   0.0000
    23 O3          25.7420   -36.7010    18.7640 O.3          1 NAD301   0.0000
    24 PN          24.4000   -36.2140    19.6800 P.3          1 NAD301   0.0000
    25 O1N         24.8890   -35.4530    20.9170 O.co2        1 NAD301   0.0000
    26 O2N         23.5530   -37.3620    20.1040 O.co2        1 NAD301  -1.0000
    27 O5D         23.4900   -35.2270    18.7860 O.3          1 NAD301   0.0000
    28 C5D         22.6940   -35.7780    17.7780 C.3          1 NAD301   0.0000
    29 C4D         22.0900   -34.6340    16.9580 C.3          1 NAD301   0.0000
    30 O4D         21.6680   -33.6920    17.7800 O.3          1 NAD301   0.0000
    31 C3D         23.1380   -33.9790    16.0690 C.3          1 NAD301   0.0000
    32 O3D         22.5720   -33.6200    14.8730 O.3          1 NAD301   0.0000
    33 C2D         23.5450   -32.7260    16.8940 C.3          1 NAD301   0.0000
    34 O2D         24.1860   -31.7210    16.0080 O.3          1 NAD301   0.0000
    35 C1D         22.3990   -32.3300    17.3430 C.3          1 NAD301   0.0000
    36 N1N         22.4660   -31.4800    18.5600 N.ar         1 NAD301   1.0000
    37 C2N         23.3300   -31.8250    19.5550 C.ar         1 NAD301   0.0000
    38 C3N         23.4060   -31.0590    20.7080 C.ar         1 NAD301   0.0000
    39 C7N         24.4270   -31.4910    21.8050 C.2          1 NAD301   0.0000
    40 O7N         24.7977   -30.6632    22.6212 O.2          1 NAD301   0.0000
    41 N7N         24.9436   -32.8676    21.8509 N.am         1 NAD301   0.0000
    42 C4N         22.5870   -29.9350    20.8690 C.ar         1 NAD301   0.0000
    43 C5N         21.7210   -29.6110    19.8840 C.ar         1 NAD301   0.0000
    44 C6N         21.6400   -30.3920    18.7000 C.ar         1 NAD301   0.0000
    45 H5B1        26.9991   -38.7043    16.3696 H            1 NAD301   0.0000
    46 H5B2        25.4269   -38.3049    16.1821 H            1 NAD301   0.0000
    47 H4B         24.9410   -40.7884    16.0541 H            1 NAD301   0.0000
    48 H3B         27.5740   -40.9981    16.7082 H            1 NAD301   0.0000
    49 H5          25.8680   -42.9437    15.6474 H            1 NAD301   0.0000
    50 H2B         28.4052   -40.6784    14.6190 H            1 NAD301   0.0000
    51 H7          27.7011   -43.3563    13.9751 H            1 NAD301   0.0000
    52 H1B         26.2909   -42.0301    13.5775 H            1 NAD301   0.0000
    53 H8A         28.7166   -39.2233    13.2646 H            1 NAD301   0.0000
    54 H6A1        27.5011   -39.6975     7.0384 H            1 NAD301   0.0000
    55 H6A2        28.5625   -38.7793     8.0535 H            1 NAD301   0.0000
    56 H2A         24.9840   -42.3868     9.1975 H            1 NAD301   0.0000
    57 H5D1        21.9622   -36.3238    18.1862 H            1 NAD301   0.0000
    58 H5D2        23.2528   -36.3591    17.1863 H            1 NAD301   0.0000
    59 H4D         21.3302   -34.9722    16.4027 H            1 NAD301   0.0000
    60 H3D         23.9201   -34.5861    15.9284 H            1 NAD301   0.0000
    61 H17         22.2127   -34.4340    14.4166 H            1 NAD301   0.0000
    62 H2D         24.1542   -32.9775    17.6460 H            1 NAD301   0.0000
    63 H19         25.0023   -32.1185    15.5890 H            1 NAD301   0.0000
    64 H1D         21.8805   -31.8698    16.6224 H            1 NAD301   0.0000
    65 H2N         23.9108   -32.6327    19.4535 H            1 NAD301   0.0000
    66 H7N1        25.6090   -33.1289    22.5501 H            1 NAD301   0.0000
    67 H7N2        24.6293   -33.5421    21.1828 H            1 NAD301   0.0000
    68 H4N         22.6421   -29.3809    21.6997 H            1 NAD301   0.0000
    69 H5N         21.1297   -28.8115    19.9896 H            1 NAD301   0.0000
    70 H6N         20.9903   -30.1527    17.9784 H            1 NAD301   0.0000
@<TRIPOS>BOND
     1    1    2      ar
     2    1    3      ar
     3    1    4       1
     4    1   23       1
     5    4    5       1
     6    5    6       1
     7    6    7       1
     8    6    8       1
     9    7   12       1
    10    8    9       1
    11    8   10       1
    12   10   11       1
    13   10   12       1
    14   12   13       1
    15   13   14       1
    16   13   22       1
    17   14   15       2
    18   15   16       1
    19   16   17      ar
    20   16   22      ar
    21   17   18       1
    22   17   19      ar
    23   19   20      ar
    24   20   21      ar
    25   21   22      ar
    26   23   24       1
    27   24   25      ar
    28   24   26      ar
    29   24   27       1
    30   27   28       1
    31   28   29       1
    32   29   30       1
    33   29   31       1
    34   30   35       1
    35   31   32       1
    36   31   33       1
    37   33   34       1
    38   33   35       1
    39   35   36       1
    40   36   37      ar
    41   36   44      ar
    42   37   38      ar
    43   38   39       1
    44   38   42      ar
    45   39   40       2
    46   39   41      am
    47   42   43      ar
    48   43   44      ar
    49   44   70       1
    50    5   45       1
    51    5   46       1
    52    6   47       1
    53    8   48       1
    54    9   49       1
    55   10   50       1
    56   11   51       1
    57   12   52       1
    58   14   53       1
    59   18   54       1
    60   18   55       1
    61   20   56       1
    62   43   69       1
    63   28   57       1
    64   28   58       1
    65   29   59       1
    66   31   60       1
    67   32   61       1
    68   33   62       1
    69   34   63       1
    70   35   64       1
    71   37   65       1
    72   41   66       1
    73   41   67       1
    74   42   68       1
@<TRIPOS>SUBSTRUCTURE
     1 NAD301      1 GROUP             4 C     NAD     0 **** NAD C 301
