@<TRIPOS>MOLECULE
3ptz_NAD_12_ligand
   70    74     1     0     0
SMALL
NO_CHARGES


@<TRIPOS>ATOM
     1 PA         -14.9720   -17.3650    71.3740 P.3          1 NAD500   0.0000
     2 O1A        -16.0380   -17.1780    70.3600 O.co2        1 NAD500   0.0000
     3 O2A        -15.1170   -18.8020    72.0450 O.co2        1 NAD500  -1.0000
     4 O5B        -14.9720   -16.2220    72.4560 O.3          1 NAD500   0.0000
     5 C5B        -15.4460   -14.9110    72.0740 C.3          1 NAD500   0.0000
     6 C4B        -16.4810   -14.3970    73.1050 C.3          1 NAD500   0.0000
     7 O4B        -16.6330   -12.9630    72.9250 O.3          1 NAD500   0.0000
     8 C3B        -17.8850   -15.0210    72.9400 C.3          1 NAD500   0.0000
     9 O3B        -18.3070   -15.4550    74.2400 O.3          1 NAD500   0.0000
    10 C2B        -18.7190   -13.8630    72.4640 C.3          1 NAD500   0.0000
    11 O2B        -20.0280   -13.9690    73.0110 O.3          1 NAD500   0.0000
    12 C1B        -17.9980   -12.6820    73.1220 C.3          1 NAD500   0.0000
    13 N9A        -18.3340   -11.3890    72.4550 N.pl3        1 NAD500   0.0000
    14 C8A        -18.4250   -11.1490    71.1300 C.2          1 NAD500   0.0000
    15 N7A        -18.7820    -9.8710    70.9240 N.2          1 NAD500   0.0000
    16 C5A        -18.9260    -9.2960    72.1160 C.ar         1 NAD500   0.0000
    17 C6A        -19.2700    -8.0160    72.5320 C.ar         1 NAD500   0.0000
    18 N6A        -19.5200    -7.0600    71.6520 N.pl3        1 NAD500   0.0000
    19 N1A        -19.3100    -7.7480    73.8580 N.ar         1 NAD500   0.0000
    20 C2A        -19.0390    -8.6900    74.7700 C.ar         1 NAD500   0.0000
    21 N3A        -18.6860    -9.9290    74.4140 N.ar         1 NAD500   0.0000
    22 C4A        -18.6250   -10.2570    73.0920 C.ar         1 NAD500   0.0000
    23 O3         -13.6050   -17.3660    70.5400 O.3          1 NAD500   0.0000
    24 PN         -12.1350   -17.1800    71.0620 P.3          1 NAD500   0.0000
    25 O1N        -11.5630   -18.6500    70.7060 O.co2        1 NAD500   0.0000
    26 O2N        -11.9540   -16.8350    72.4900 O.co2        1 NAD500  -1.0000
    27 O5D        -11.3070   -16.1520    70.0490 O.3          1 NAD500   0.0000
    28 C5D        -10.3200   -16.6630    69.1090 C.3          1 NAD500   0.0000
    29 C4D         -9.4160   -15.5490    68.5040 C.3          1 NAD500   0.0000
    30 O4D         -9.1650   -15.5310    67.0580 O.3          1 NAD500   0.0000
    31 C3D        -10.2890   -14.3600    68.7840 C.3          1 NAD500   0.0000
    32 O3D         -9.5210   -13.5380    69.7120 O.3          1 NAD500   0.0000
    33 C2D        -10.7000   -13.7480    67.3510 C.3          1 NAD500   0.0000
    34 O2D        -10.1230   -12.4610    66.9660 O.3          1 NAD500   0.0000
    35 C1D        -10.2660   -14.8180    66.3210 C.3          1 NAD500   0.0000
    36 N1N        -11.2750   -15.8100    65.7520 N.ar         1 NAD500   1.0000
    37 C2N        -12.7160   -15.7450    65.7240 C.ar         1 NAD500   0.0000
    38 C3N        -13.5050   -16.8000    65.1290 C.ar         1 NAD500   0.0000
    39 C7N        -15.0680   -16.8900    65.0610 C.2          1 NAD500   0.0000
    40 O7N        -15.7671   -15.9947    65.5376 O.2          1 NAD500   0.0000
    41 N7N        -15.6137   -17.9453    64.4822 N.am         1 NAD500   0.0000
    42 C4N        -12.8380   -18.0230    64.4710 C.ar         1 NAD500   0.0000
    43 C5N        -11.4470   -17.9670    64.5600 C.ar         1 NAD500   0.0000
    44 C6N        -10.6970   -16.9320    65.1490 C.ar         1 NAD500   0.0000
    45 H5B1       -15.8758   -14.9645    71.1727 H            1 NAD500   0.0000
    46 H5B2       -14.6730   -14.2776    72.0376 H            1 NAD500   0.0000
    47 H4B        -16.1451   -14.5798    74.0290 H            1 NAD500   0.0000
    48 H3B        -17.8822   -15.7726    72.2803 H            1 NAD500   0.0000
    49 H5         -18.3398   -14.6703    74.8590 H            1 NAD500   0.0000
    50 H2B        -18.7308   -13.7905    71.4667 H            1 NAD500   0.0000
    51 H7         -20.0625   -13.4900    73.8881 H            1 NAD500   0.0000
    52 H1B        -18.2109   -12.6398    74.0982 H            1 NAD500   0.0000
    53 H8A        -18.2526   -11.8215    70.4102 H            1 NAD500   0.0000
    54 H6A1       -19.7665    -6.1432    71.9662 H            1 NAD500   0.0000
    55 H6A2       -19.4625    -7.2543    70.6727 H            1 NAD500   0.0000
    56 H2A        -19.1022    -8.4610    75.7414 H            1 NAD500   0.0000
    57 H5D1       -10.8004   -17.1231    68.3623 H            1 NAD500   0.0000
    58 H5D2        -9.7374   -17.3211    69.5861 H            1 NAD500   0.0000
    59 H4D         -8.5565   -15.4806    69.0105 H            1 NAD500   0.0000
    60 H3D        -11.1180   -14.6743    69.2466 H            1 NAD500   0.0000
    61 H17        -10.0460   -12.7195    69.9454 H            1 NAD500   0.0000
    62 H2D        -11.6962   -13.6673    67.3185 H            1 NAD500   0.0000
    63 H19        -10.3877   -11.7642    67.6327 H            1 NAD500   0.0000
    64 H1D         -9.8485   -14.3389    65.5489 H            1 NAD500   0.0000
    65 H2N        -13.1784   -14.9539    66.1244 H            1 NAD500   0.0000
    66 H7N1       -16.6088   -18.0260    64.4259 H            1 NAD500   0.0000
    67 H7N2       -15.0314   -18.6631    64.1005 H            1 NAD500   0.0000
    68 H4N        -13.3417   -18.7675    64.0328 H            1 NAD500   0.0000
    69 H5N        -10.9358   -18.7326    64.1694 H            1 NAD500   0.0000
    70 H6N         -9.6996   -17.0023    65.1357 H            1 NAD500   0.0000
@<TRIPOS>BOND
     1    1    2      ar
     2    1    3      ar
     3    1    4       1
     4    1   23       1
     5    4    5       1
     6    5    6       1
     7    6    7       1
     8    6    8       1
     9    7   12       1
    10    8    9       1
    11    8   10       1
    12   10   11       1
    13   10   12       1
    14   12   13       1
    15   13   14       1
    16   13   22       1
    17   14   15       2
    18   15   16       1
    19   16   17      ar
    20   16   22      ar
    21   17   18       1
    22   17   19      ar
    23   19   20      ar
    24   20   21      ar
    25   21   22      ar
    26   23   24       1
    27   24   25      ar
    28   24   26      ar
    29   24   27       1
    30   27   28       1
    31   28   29       1
    32   29   30       1
    33   29   31       1
    34   30   35       1
    35   31   32       1
    36   31   33       1
    37   33   34       1
    38   33   35       1
    39   35   36       1
    40   36   37      ar
    41   36   44      ar
    42   37   38      ar
    43   38   39       1
    44   38   42      ar
    45   39   40       2
    46   39   41      am
    47   42   43      ar
    48   43   44      ar
    49   44   70       1
    50    5   45       1
    51    5   46       1
    52    6   47       1
    53    8   48       1
    54    9   49       1
    55   10   50       1
    56   11   51       1
    57   12   52       1
    58   14   53       1
    59   18   54       1
    60   18   55       1
    61   20   56       1
    62   43   69       1
    63   28   57       1
    64   28   58       1
    65   29   59       1
    66   31   60       1
    67   32   61       1
    68   33   62       1
    69   34   63       1
    70   35   64       1
    71   37   65       1
    72   41   66       1
    73   41   67       1
    74   42   68       1
@<TRIPOS>SUBSTRUCTURE
     1 NAD500      1 GROUP             4 F     NAD     0 **** NAD F 500
