@<TRIPOS>MOLECULE
4ac0_MIY_1_ligand
   61    64     1     0     0
SMALL
NO_CHARGES


@<TRIPOS>ATOM
     1 O8          16.5370    -4.2000    -8.0720 O.2          1 MIY1204   0.0000
     2 C21         16.4590    -3.0070    -8.4750 C.2          1 MIY1204   0.0000
     3 N2          17.4460    -2.3790    -9.1640 N.am         1 MIY1204   0.0000
     4 C2          15.1720    -2.3900    -8.3290 C.2          1 MIY1204   0.0000
     5 C1          14.9780    -1.0550    -8.7920 C.2          1 MIY1204   0.0000
     6 O1          15.7390    -0.5100    -9.6020 O.2          1 MIY1204   0.0000
     7 C3          14.1930    -3.0890    -7.7570 C.2          1 MIY1204   0.0000
     8 O2          14.4900    -4.3090    -7.3020 O.3          1 MIY1204   0.0000
     9 C4          12.7690    -2.6000    -7.6530 C.3          1 MIY1204   0.0000
    10 N1          12.1260    -2.9310    -6.3540 N.4          1 MIY1204   1.0000
    11 C20         10.6660    -2.5930    -6.4270 C.3          1 MIY1204   0.0000
    12 C19         12.7520    -2.2660    -5.1680 C.3          1 MIY1204   0.0000
    13 C5          12.6120    -1.1450    -8.1770 C.3          1 MIY1204   0.0000
    14 C18         13.8860    -0.3190    -8.0820 C.3          1 MIY1204   0.0000
    15 O7          14.2570    -0.0490    -6.7160 O.3          1 MIY1204   0.0000
    16 C17         13.8220     1.0080    -8.7510 C.2          1 MIY1204   0.0000
    17 O6          14.6750     1.9590    -8.3310 O.3          1 MIY1204   0.0000
    18 C16         12.9680     1.2150    -9.7350 C.2          1 MIY1204   0.0000
    19 C7          11.9920     0.1280   -10.1600 C.3          1 MIY1204   0.0000
    20 C6          12.5080    -1.2100    -9.6890 C.3          1 MIY1204   0.0000
    21 C15         12.9130     2.5150   -10.4020 C.2          1 MIY1204   0.0000
    22 O5          13.6790     3.4670   -10.0440 O.2          1 MIY1204   0.0000
    23 C14         12.0830     2.6090   -11.6510 C.ar         1 MIY1204   0.0000
    24 C9          11.5000     1.4540   -12.2480 C.ar         1 MIY1204   0.0000
    25 C8          11.7460     0.0600   -11.6630 C.3          1 MIY1204   0.0000
    26 C13         11.9220     3.8800   -12.2010 C.ar         1 MIY1204   0.0000
    27 O4          12.4910     4.8960   -11.5740 O.3          1 MIY1204   0.0000
    28 C12         11.1300     4.0320   -13.3570 C.ar         1 MIY1204   0.0000
    29 C11         10.5520     2.8860   -13.9430 C.ar         1 MIY1204   0.0000
    30 C10         10.7430     1.5670   -13.4410 C.ar         1 MIY1204   0.0000
    31 N7          10.1260     0.3800   -14.0540 N.pl3        1 MIY1204   0.0000
    32 CN7          9.2940    -0.4220   -13.1030 C.3          1 MIY1204   0.0000
    33 C71          9.2760     0.7810   -15.1530 C.3          1 MIY1204   0.0000
    34 H1          17.3256    -1.4306    -9.4573 H            1 MIY1204   0.0000
    35 H2          18.2934    -2.8649    -9.3782 H            1 MIY1204   0.0000
    36 H3          15.4194    -4.6656    -7.3972 H            1 MIY1204   0.0000
    37 H4          12.2713    -3.1545    -8.3199 H            1 MIY1204   0.0000
    38 H5          10.2287    -2.8139    -5.5552 H            1 MIY1204   0.0000
    39 H6          10.5589    -1.6168    -6.6157 H            1 MIY1204   0.0000
    40 H7          10.2373    -3.1230    -7.1587 H            1 MIY1204   0.0000
    41 H8          12.2653    -2.5380    -4.3379 H            1 MIY1204   0.0000
    42 H9          13.7105    -2.5425    -5.0982 H            1 MIY1204   0.0000
    43 H10         12.6985    -1.2733    -5.2757 H            1 MIY1204   0.0000
    44 H11         11.8291    -0.6787    -7.7652 H            1 MIY1204   0.0000
    45 H12         13.5151     0.4425    -6.2600 H            1 MIY1204   0.0000
    46 H13         15.3212     1.7609    -7.5940 H            1 MIY1204   0.0000
    47 H14         11.1167     0.3011    -9.7084 H            1 MIY1204   0.0000
    48 H15         11.8742    -1.9353    -9.9578 H            1 MIY1204   0.0000
    49 H16         13.4078    -1.3893   -10.0867 H            1 MIY1204   0.0000
    50 H17         10.9448    -0.5126   -11.8367 H            1 MIY1204   0.0000
    51 H18         12.5464    -0.3432   -12.1066 H            1 MIY1204   0.0000
    52 H19         13.0139     4.7372   -10.7366 H            1 MIY1204   0.0000
    53 H20         10.9802     4.9370   -13.7552 H            1 MIY1204   0.0000
    54 H21          9.9782     3.0062   -14.7532 H            1 MIY1204   0.0000
    55 HN71         8.9064    -1.2097   -13.5818 H            1 MIY1204   0.0000
    56 HN72         9.8655    -0.7399   -12.3465 H            1 MIY1204   0.0000
    57 HN73         8.5541     0.1477   -12.7453 H            1 MIY1204   0.0000
    58 H25          8.8598    -0.0294   -15.5653 H            1 MIY1204   0.0000
    59 H26          8.5578     1.3889   -14.8143 H            1 MIY1204   0.0000
    60 H27          9.8226     1.2608   -15.8393 H            1 MIY1204   0.0000
    61 H28         12.2017    -3.9193    -6.2219 H            1 MIY1204   0.0000
@<TRIPOS>BOND
     1    1    2       2
     2    2    3      am
     3    2    4       1
     4    4    5       1
     5    4    7       2
     6    5    6       2
     7    5   14       1
     8    7    8       1
     9    7    9       1
    10    9   10       1
    11    9   13       1
    12   10   11       1
    13   10   12       1
    14   13   14       1
    15   13   20       1
    16   14   15       1
    17   14   16       1
    18   16   17       1
    19   16   18       2
    20   18   19       1
    21   18   21       1
    22   19   20       1
    23   19   25       1
    24   21   22       2
    25   21   23       1
    26   23   24      ar
    27   23   26      ar
    28   24   25       1
    29   24   30      ar
    30   26   27       1
    31   26   28      ar
    32   28   29      ar
    33   29   30      ar
    34   30   31       1
    35   31   32       1
    36   31   33       1
    37    3   34       1
    38    3   35       1
    39    8   36       1
    40    9   37       1
    41   11   38       1
    42   11   39       1
    43   11   40       1
    44   12   41       1
    45   12   42       1
    46   12   43       1
    47   13   44       1
    48   15   45       1
    49   17   46       1
    50   19   47       1
    51   20   48       1
    52   20   49       1
    53   25   50       1
    54   25   51       1
    55   27   52       1
    56   28   53       1
    57   29   54       1
    58   32   55       1
    59   32   56       1
    60   32   57       1
    61   33   58       1
    62   33   59       1
    63   33   60       1
    64   10   61       1
@<TRIPOS>SUBSTRUCTURE
     1 MIY1204     1 GROUP             4 A     MIY     0 **** MIY A1204
