@<TRIPOS>MOLECULE
2nq7_HM5_1_ligand
   37    38     1     0     0
SMALL
NO_CHARGES


@<TRIPOS>ATOM
     1 S           10.7210    33.2170    23.2850 S.3          1 HM5410   0.0000
     2 N1           9.1330    31.2470    23.1770 N.2          1 HM5410   0.0000
     3 N2          11.1600    30.9660    21.9780 N.am         1 HM5410   0.0000
     4 N3          12.3460    29.1710    20.3630 N.ar         1 HM5410   0.0000
     5 N4          15.1410    31.5840    20.7510 N.am         1 HM5410   0.0000
     6 C1           9.2390    33.3520    24.1420 C.2          1 HM5410   0.0000
     7 C2           8.5330    32.1990    23.9600 C.2          1 HM5410   0.0000
     8 C3          10.3020    31.6580    22.7710 C.2          1 HM5410   0.0000
     9 C4          12.4330    31.2930    21.5980 C.2          1 HM5410   0.0000
    10 C5          13.0930    30.2700    20.7270 C.ar         1 HM5410   0.0000
    11 C6          12.9790    28.2100    19.5390 C.ar         1 HM5410   0.0000
    12 C7          14.2300    28.2730    19.1160 C.ar         1 HM5410   0.0000
    13 C8          15.0090    29.4070    19.4960 C.ar         1 HM5410   0.0000
    14 C9          14.4600    30.4490    20.3150 C.ar         1 HM5410   0.0000
    15 C10         16.4400    32.0900    20.5970 C.2          1 HM5410   0.0000
    16 C11         16.6900    33.5730    21.0280 C.3          1 HM5410   0.0000
    17 C12         15.4100    34.2580    21.5550 C.3          1 HM5410   0.0000
    18 C13         17.2360    34.3890    19.8290 C.3          1 HM5410   0.0000
    19 C14         17.7450    33.5860    22.1550 C.3          1 HM5410   0.0000
    20 O1          12.9780    32.3100    21.9730 O.2          1 HM5410   0.0000
    21 O2          17.3410    31.4070    20.1640 O.2          1 HM5410   0.0000
    22 H1          10.8137    30.0977    21.6228 H            1 HM5410   0.0000
    23 H2          14.5645    32.1818    21.3080 H            1 HM5410   0.0000
    24 H3           8.9441    34.1405    24.6818 H            1 HM5410   0.0000
    25 H4           7.6331    32.0570    24.3724 H            1 HM5410   0.0000
    26 H5          12.4364    27.4199    19.2538 H            1 HM5410   0.0000
    27 H6          14.6186    27.5482    18.5471 H            1 HM5410   0.0000
    28 H7          15.9569    29.4766    19.1850 H            1 HM5410   0.0000
    29 H8          15.6197    35.2001    21.8168 H            1 HM5410   0.0000
    30 H9          14.7129    34.2586    20.8380 H            1 HM5410   0.0000
    31 H10         15.0686    33.7588    22.3514 H            1 HM5410   0.0000
    32 H11         17.3928    35.3348    20.1133 H            1 HM5410   0.0000
    33 H12         18.0972    33.9876    19.5171 H            1 HM5410   0.0000
    34 H13         16.5704    34.3711    19.0829 H            1 HM5410   0.0000
    35 H14         17.9154    34.5289    22.4412 H            1 HM5410   0.0000
    36 H15         17.4075    33.0571    22.9337 H            1 HM5410   0.0000
    37 H16         18.5955    33.1804    21.8201 H            1 HM5410   0.0000
@<TRIPOS>BOND
     1    1    6       1
     2    1    8       1
     3    2    7       1
     4    2    8       2
     5    3    8       1
     6    3    9      am
     7    4   10      ar
     8    4   11      ar
     9    5   14       1
    10    5   15      am
    11    6    7       2
    12    9   10       1
    13    9   20       2
    14   10   14      ar
    15   11   12      ar
    16   12   13      ar
    17   13   14      ar
    18   15   16       1
    19   15   21       2
    20   16   17       1
    21   16   18       1
    22   16   19       1
    23    3   22       1
    24    5   23       1
    25    6   24       1
    26    7   25       1
    27   11   26       1
    28   12   27       1
    29   13   28       1
    30   17   29       1
    31   17   30       1
    32   17   31       1
    33   18   32       1
    34   18   33       1
    35   18   34       1
    36   19   35       1
    37   19   36       1
    38   19   37       1
@<TRIPOS>SUBSTRUCTURE
     1 HM5410      1 GROUP             4 A     HM5     0 **** HM5 A 410
