@<TRIPOS>MOLECULE
2p70_PRZ_2_ligand
   24    24     1     0     0
SMALL
NO_CHARGES


@<TRIPOS>ATOM
     1 N1          64.4150    42.8610    -3.7280 N.pl3        1 PRZ2962   0.0000
     2 C2          63.8770    42.8730    -2.5140 C.2          1 PRZ2962   0.0000
     3 C3          63.2140    44.1760    -2.0770 C.2          1 PRZ2962   0.0000
     4 N4          62.9780    45.2170    -2.9750 N.2          1 PRZ2962   0.0000
     5 C5          63.4680    45.0500    -4.2210 C.2          1 PRZ2962   0.0000
     6 C6          64.1560    43.8830    -4.5810 C.2          1 PRZ2962   0.0000
     7 C21         64.2700    41.7350    -1.6720 C.2          1 PRZ2962   0.0000
     8 C22         64.6450    40.4020    -1.6980 C.2          1 PRZ2962   0.0000
     9 C23         64.6690    39.5900    -2.7320 C.2          1 PRZ2962   0.0000
    10 C24         65.1320    39.8020    -0.3580 C.3          1 PRZ2962   0.0000
    11 O31         62.7490    44.3650    -0.9540 O.3          1 PRZ2962   0.0000
    12 C31         62.2770    45.7160    -0.8010 C.3          1 PRZ2962   0.0000
    13 H1          65.0057    42.1053    -4.0106 H            1 PRZ2962   0.0000
    14 H2          63.3379    45.7722    -4.9003 H            1 PRZ2962   0.0000
    15 H3          64.4755    43.7989    -5.5248 H            1 PRZ2962   0.0000
    16 H4          64.2647    42.0375    -0.7189 H            1 PRZ2962   0.0000
    17 H5          64.9629    38.6412    -2.6160 H            1 PRZ2962   0.0000
    18 H6          64.3933    39.9212    -3.6344 H            1 PRZ2962   0.0000
    19 H7          65.3752    38.8413    -0.4918 H            1 PRZ2962   0.0000
    20 H8          65.9335    40.3073    -0.0382 H            1 PRZ2962   0.0000
    21 H9          64.4021    39.8695     0.3223 H            1 PRZ2962   0.0000
    22 H10         61.9061    45.8373     0.1197 H            1 PRZ2962   0.0000
    23 H11         63.0358    46.3521    -0.9412 H            1 PRZ2962   0.0000
    24 H12         61.5611    45.8974    -1.4753 H            1 PRZ2962   0.0000
@<TRIPOS>BOND
     1    1    2       1
     2    1    6       1
     3    2    3       1
     4    2    7       2
     5    3    4       2
     6    3   11       1
     7    4    5       1
     8    5    6       2
     9    7    8       1
    10    8    9       2
    11    8   10       1
    12   11   12       1
    13    1   13       1
    14    5   14       1
    15    6   15       1
    16    7   16       1
    17    9   17       1
    18    9   18       1
    19   10   19       1
    20   10   20       1
    21   10   21       1
    22   12   22       1
    23   12   23       1
    24   12   24       1
@<TRIPOS>SUBSTRUCTURE
     1 PRZ2962     1 GROUP             4 A     PRZ     0 **** PRZ A2962
