@<TRIPOS>MOLECULE
1bo4_COA_2_ligand
   80    82     1     0     0
SMALL
NO_CHARGES


@<TRIPOS>ATOM
     1 N1A         11.3500    48.6500    28.0990 N.ar         1 COA301   0.0000
     2 C2A         12.1440    48.4990    27.0320 C.ar         1 COA301   0.0000
     3 N3A         12.8300    47.4140    26.6620 N.ar         1 COA301   0.0000
     4 C4A         12.6380    46.3500    27.5540 C.ar         1 COA301   0.0000
     5 C5A         11.8420    46.3730    28.6890 C.ar         1 COA301   0.0000
     6 C6A         11.1650    47.6020    28.9640 C.ar         1 COA301   0.0000
     7 N6A         10.3680    47.7690    30.0210 N.pl3        1 COA301   0.0000
     8 N7A         11.8720    45.1740    29.3410 N.2          1 COA301   0.0000
     9 C8A         12.6740    44.4290    28.6040 C.2          1 COA301   0.0000
    10 N9A         13.1810    45.0760    27.4890 N.pl3        1 COA301   0.0000
    11 C1B         14.0540    44.5280    26.3970 C.3          1 COA301   0.0000
    12 C2B         15.4820    45.0710    26.6030 C.3          1 COA301   0.0000
    13 O2B         15.6500    46.2850    25.8560 O.3          1 COA301   0.0000
    14 C3B         16.4310    43.9790    26.0520 C.3          1 COA301   0.0000
    15 O3B         16.7710    44.2560    24.6700 O.3          1 COA301   0.0000
    16 P3B         18.2310    44.6130    24.3130 P.3          1 COA301   0.0000
    17 O7A         18.6010    45.9620    24.9460 O.co2        1 COA301   0.0000
    18 O8A         19.1850    43.5200    24.8280 O.co2        1 COA301  -1.0000
    19 O9A         18.3630    44.7200    22.7840 O.co2        1 COA301  -1.0000
    20 C4B         15.5240    42.7370    26.1100 C.3          1 COA301   0.0000
    21 O4B         14.1850    43.1040    26.4600 O.3          1 COA301   0.0000
    22 C5B         16.0810    41.7330    27.1190 C.3          1 COA301   0.0000
    23 O5B         15.7490    42.0060    28.4860 O.3          1 COA301   0.0000
    24 P1A         16.7840    41.7100    29.5940 P.3          1 COA301   0.0000
    25 O1A         16.1550    41.9030    30.9840 O.co2        1 COA301   0.0000
    26 O2A         17.2700    40.2480    29.4540 O.co2        1 COA301  -1.0000
    27 O3A         17.9660    42.6820    29.4340 O.3          1 COA301   0.0000
    28 P2A         19.4140    42.5150    29.9310 P.3          1 COA301   0.0000
    29 O4A         19.4240    42.0810    31.4100 O.co2        1 COA301   0.0000
    30 O5A         20.1180    41.4470    29.0970 O.co2        1 COA301  -1.0000
    31 O6A         20.2000    43.8130    29.7990 O.3          1 COA301   0.0000
    32 CBP         20.6230    46.2150    29.5590 C.3          1 COA301   0.0000
    33 CCP         19.6170    45.0590    29.4200 C.3          1 COA301   0.0000
    34 CDP         20.5100    46.7740    30.9940 C.3          1 COA301   0.0000
    35 CEP         20.2740    47.3340    28.5490 C.3          1 COA301   0.0000
    36 CAP         22.0580    45.6360    29.2870 C.3          1 COA301   0.0000
    37 OAP         22.2490    45.3650    27.8900 O.3          1 COA301   0.0000
    38 C9P         23.2430    46.5340    29.7070 C.2          1 COA301   0.0000
    39 O9P         23.7030    46.4620    30.8540 O.2          1 COA301   0.0000
    40 N8P         23.7530    47.4480    28.7350 N.am         1 COA301   0.0000
    41 C7P         24.8140    48.3630    29.0060 C.3          1 COA301   0.0000
    42 C6P         24.3090    49.5800    29.7870 C.3          1 COA301   0.0000
    43 C5P         23.0820    50.2570    29.1860 C.2          1 COA301   0.0000
    44 O5P         22.9150    50.3840    27.9670 O.2          1 COA301   0.0000
    45 N4P         22.1870    50.7540    30.1820 N.am         1 COA301   0.0000
    46 C3P         21.0090    51.4790    29.8620 C.3          1 COA301   0.0000
    47 C2P         19.7560    50.8050    30.3910 C.3          1 COA301   0.0000
    48 S1P         18.2090    51.6610    29.9330 S.3          1 COA301   0.0000
    49 H2A         12.2350    49.2981    26.4377 H            1 COA301   0.0000
    50 H6A1        10.2224    47.0150    30.6615 H            1 COA301   0.0000
    51 H6A2         9.9163    48.6482    30.1727 H            1 COA301   0.0000
    52 H8A         12.8962    43.4807    28.8305 H            1 COA301   0.0000
    53 H1B         13.7040    44.8045    25.5020 H            1 COA301   0.0000
    54 H2B         15.6589    45.2306    27.5742 H            1 COA301   0.0000
    55 H7          14.7716    46.7577    25.7863 H            1 COA301   0.0000
    56 H3B         17.2459    43.8719    26.6216 H            1 COA301   0.0000
    57 H4B         15.5117    42.3083    25.2066 H            1 COA301   0.0000
    58 H5B1        17.0775    41.7291    27.0359 H            1 COA301   0.0000
    59 H5B2        15.7236    40.8283    26.8870 H            1 COA301   0.0000
    60 HCP1        18.8286    45.2414    30.0075 H            1 COA301   0.0000
    61 HCP2        19.3169    45.0016    28.4678 H            1 COA301   0.0000
    62 HDP1        21.1559    47.5287    31.1096 H            1 COA301   0.0000
    63 HDP2        19.5794    47.1048    31.1506 H            1 COA301   0.0000
    64 HDP3        20.7216    46.0506    31.6512 H            1 COA301   0.0000
    65 HEP1        20.9296    48.0834    28.6421 H            1 COA301   0.0000
    66 HEP2        20.3154    46.9685    27.6191 H            1 COA301   0.0000
    67 HEP3        19.3515    47.6733    28.7331 H            1 COA301   0.0000
    68 HAP         22.1385    44.7705    29.7814 H            1 COA301   0.0000
    69 H21         21.5709    44.6965    27.5844 H            1 COA301   0.0000
    70 H8P         23.3472    47.4466    27.8210 H            1 COA301   0.0000
    71 H7P1        25.2080    48.6714    28.1402 H            1 COA301   0.0000
    72 H7P2        25.5163    47.8979    29.5449 H            1 COA301   0.0000
    73 H6P1        25.0477    50.2528    29.8275 H            1 COA301   0.0000
    74 H6P2        24.0783    49.2821    30.7133 H            1 COA301   0.0000
    75 H4P         22.3988    50.5843    31.1445 H            1 COA301   0.0000
    76 H3P1        20.9381    51.5544    28.8674 H            1 COA301   0.0000
    77 H3P2        21.0755    52.3932    30.2617 H            1 COA301   0.0000
    78 H2P1        19.8138    50.7707    31.3887 H            1 COA301   0.0000
    79 H2P2        19.7210    49.8743    30.0269 H            1 COA301   0.0000
    80 H1P         17.4284    51.1647    30.3129 H            1 COA301   0.0000
@<TRIPOS>BOND
     1    1    2      ar
     2    1    6      ar
     3    2    3      ar
     4    3    4      ar
     5    4    5      ar
     6    4   10       1
     7    5    6      ar
     8    5    8       1
     9    6    7       1
    10    8    9       2
    11    9   10       1
    12   10   11       1
    13   11   12       1
    14   11   21       1
    15   12   13       1
    16   12   14       1
    17   14   15       1
    18   14   20       1
    19   15   16       1
    20   16   17      ar
    21   16   18      ar
    22   16   19      ar
    23   20   21       1
    24   20   22       1
    25   22   23       1
    26   23   24       1
    27   24   25      ar
    28   24   26      ar
    29   24   27       1
    30   27   28       1
    31   28   29      ar
    32   28   30      ar
    33   28   31       1
    34   31   33       1
    35   32   33       1
    36   32   34       1
    37   32   35       1
    38   32   36       1
    39   36   37       1
    40   36   38       1
    41   38   39       2
    42   38   40      am
    43   40   41       1
    44   41   42       1
    45   42   43       1
    46   43   44       2
    47   43   45      am
    48   45   46       1
    49   46   47       1
    50   47   48       1
    51    2   49       1
    52    7   50       1
    53    7   51       1
    54    9   52       1
    55   11   53       1
    56   12   54       1
    57   13   55       1
    58   14   56       1
    59   48   80       1
    60   47   79       1
    61   20   57       1
    62   22   58       1
    63   22   59       1
    64   47   78       1
    65   46   77       1
    66   33   60       1
    67   33   61       1
    68   34   62       1
    69   34   63       1
    70   34   64       1
    71   35   65       1
    72   35   66       1
    73   35   67       1
    74   36   68       1
    75   37   69       1
    76   40   70       1
    77   41   71       1
    78   41   72       1
    79   42   73       1
    80   42   74       1
    81   45   75       1
    82   46   76       1
@<TRIPOS>SUBSTRUCTURE
     1 COA301      1 GROUP             4 B     COA     0 **** COA B 301
