@<TRIPOS>MOLECULE
2jah_NDP_1_ligand
   73    77     1     0     0
SMALL
NO_CHARGES


@<TRIPOS>ATOM
     1 PA          25.5180   -10.5820    12.4240 P.3          1 NDP1248   0.0000
     2 O1A         25.6520   -11.6230    11.3710 O.co2        1 NDP1248   0.0000
     3 O2A         24.1160   -10.0960    12.5370 O.co2        1 NDP1248  -1.0000
     4 O5B         26.4720    -9.3360    12.0760 O.3          1 NDP1248   0.0000
     5 C5B         27.7090    -9.5230    11.4350 C.3          1 NDP1248   0.0000
     6 C4B         27.9470    -8.2970    10.5700 C.3          1 NDP1248   0.0000
     7 O4B         29.2090    -8.4040     9.9590 O.3          1 NDP1248   0.0000
     8 C3B         26.9220    -8.1960     9.4600 C.3          1 NDP1248   0.0000
     9 O3B         26.5500    -6.8320     9.3240 O.3          1 NDP1248   0.0000
    10 C2B         27.6660    -8.6340     8.2220 C.3          1 NDP1248   0.0000
    11 O2B         27.1410    -7.8770     7.1680 O.3          1 NDP1248   0.0000
    12 C1B         29.0750    -8.1900     8.5680 C.3          1 NDP1248   0.0000
    13 N9A         30.1430    -8.9040     7.8560 N.pl3        1 NDP1248   0.0000
    14 C8A         30.3940   -10.2500     7.8460 C.2          1 NDP1248   0.0000
    15 N7A         31.4910   -10.4680     7.0760 N.2          1 NDP1248   0.0000
    16 C5A         31.9480    -9.2770     6.6170 C.ar         1 NDP1248   0.0000
    17 C6A         33.0290    -8.9300     5.8090 C.ar         1 NDP1248   0.0000
    18 N6A         33.8920    -9.8690     5.3880 N.pl3        1 NDP1248   0.0000
    19 N1A         33.2520    -7.5940     5.5130 N.ar         1 NDP1248   0.0000
    20 C2A         32.4090    -6.6220     6.0240 C.ar         1 NDP1248   0.0000
    21 N3A         31.3320    -6.9660     6.8240 N.ar         1 NDP1248   0.0000
    22 C4A         31.1160    -8.2800     7.1200 C.ar         1 NDP1248   0.0000
    23 O3          26.0610   -11.1620    13.8220 O.3          1 NDP1248   0.0000
    24 PN          26.5230   -10.3090    15.1140 P.3          1 NDP1248   0.0000
    25 O1N         26.2690   -11.1840    16.2920 O.co2        1 NDP1248   0.0000
    26 O2N         25.8730    -8.9730    15.0820 O.co2        1 NDP1248  -1.0000
    27 O5D         28.0950   -10.2410    14.8070 O.3          1 NDP1248   0.0000
    28 C5D         28.8780    -9.0770    14.9670 C.3          1 NDP1248   0.0000
    29 C4D         30.0960    -9.3740    15.8450 C.3          1 NDP1248   0.0000
    30 O4D         29.6440    -9.7680    17.1220 O.3          1 NDP1248   0.0000
    31 C3D         30.9950   -10.5000    15.3430 C.3          1 NDP1248   0.0000
    32 O3D         32.3310   -10.0560    15.4300 O.3          1 NDP1248   0.0000
    33 C2D         30.7600   -11.6360    16.3140 C.3          1 NDP1248   0.0000
    34 O2D         31.8640   -12.5310    16.3800 O.3          1 NDP1248   0.0000
    35 C1D         30.4580   -10.8340    17.5830 C.3          1 NDP1248   0.0000
    36 N1N         29.7550   -11.5880    18.6360 N.ar         1 NDP1248   1.0000
    37 C2N         28.4730   -12.0480    18.4650 C.ar         1 NDP1248   0.0000
    38 C3N         27.7940   -12.7250    19.4810 C.ar         1 NDP1248   0.0000
    39 C7N         26.4030   -13.2630    19.2960 C.2          1 NDP1248   0.0000
    40 O7N         26.0070   -14.3210    20.1310 O.2          1 NDP1248   0.0000
    41 N7N         25.5750   -12.7700    18.3680 N.am         1 NDP1248   0.0000
    42 C4N         28.4560   -12.9730    20.8160 C.ar         1 NDP1248   0.0000
    43 C5N         29.8480   -12.4180    20.8890 C.ar         1 NDP1248   0.0000
    44 C6N         30.4300   -11.7550    19.8170 C.ar         1 NDP1248   0.0000
    45 P2B         27.3530    -8.1980     5.6100 P.3          1 NDP1248   0.0000
    46 O1X         26.4020    -7.2480     4.9070 O.co2        1 NDP1248   0.0000
    47 O2X         28.7770    -7.9080     5.2520 O.co2        1 NDP1248  -1.0000
    48 O3X         26.9850    -9.6250     5.2670 O.co2        1 NDP1248  -1.0000
    49 H5B1        27.6809   -10.3450    10.8663 H            1 NDP1248   0.0000
    50 H5B2        28.4381    -9.6120    12.1136 H            1 NDP1248   0.0000
    51 H4B         27.9145    -7.4731    11.1357 H            1 NDP1248   0.0000
    52 H3B         26.1284    -8.7780     9.6377 H            1 NDP1248   0.0000
    53 H5          26.2972    -6.6486     8.3740 H            1 NDP1248   0.0000
    54 H2B         27.6003    -9.6186     8.0602 H            1 NDP1248   0.0000
    55 H1B         29.1605    -7.2112     8.3817 H            1 NDP1248   0.0000
    56 H8A         29.8623   -10.9502     8.3225 H            1 NDP1248   0.0000
    57 H6A1        34.6657    -9.6132     4.8083 H            1 NDP1248   0.0000
    58 H6A2        33.7609   -10.8240     5.6542 H            1 NDP1248   0.0000
    59 H2A         32.5798    -5.6596     5.8129 H            1 NDP1248   0.0000
    60 H5D1        28.3254    -8.3643    15.3992 H            1 NDP1248   0.0000
    61 H5D2        29.1869    -8.7611    14.0699 H            1 NDP1248   0.0000
    62 H4D         30.6408    -8.5404    15.9367 H            1 NDP1248   0.0000
    63 H3D         30.7593   -10.7651    14.4080 H            1 NDP1248   0.0000
    64 H16         32.4183    -9.4081    16.1867 H            1 NDP1248   0.0000
    65 H2D         29.9415   -12.1409    16.0398 H            1 NDP1248   0.0000
    66 H18         32.0270   -12.9265    15.4761 H            1 NDP1248   0.0000
    67 H1D         31.3106   -10.4645    17.9526 H            1 NDP1248   0.0000
    68 H2N         28.0131   -11.8945    17.5904 H            1 NDP1248   0.0000
    69 H7N1        24.6546   -13.1479    18.2676 H            1 NDP1248   0.0000
    70 H7N2        25.8765   -12.0236    17.7747 H            1 NDP1248   0.0000
    71 H4N         28.0132   -13.4561    21.5713 H            1 NDP1248   0.0000
    72 H5N         30.3715   -12.5288    21.7338 H            1 NDP1248   0.0000
    73 H6N         31.3577   -11.3931    19.9082 H            1 NDP1248   0.0000
@<TRIPOS>BOND
     1    1    2      ar
     2    1    3      ar
     3    1    4       1
     4    1   23       1
     5    4    5       1
     6    5    6       1
     7    6    7       1
     8    6    8       1
     9    7   12       1
    10    8    9       1
    11    8   10       1
    12   10   11       1
    13   10   12       1
    14   11   45       1
    15   12   13       1
    16   13   14       1
    17   13   22       1
    18   14   15       2
    19   15   16       1
    20   16   17      ar
    21   16   22      ar
    22   17   18       1
    23   17   19      ar
    24   19   20      ar
    25   20   21      ar
    26   21   22      ar
    27   23   24       1
    28   24   25      ar
    29   24   26      ar
    30   24   27       1
    31   27   28       1
    32   28   29       1
    33   29   30       1
    34   29   31       1
    35   30   35       1
    36   31   32       1
    37   31   33       1
    38   33   34       1
    39   33   35       1
    40   35   36       1
    41   36   37      ar
    42   36   44      ar
    43   37   38      ar
    44   38   39       1
    45   38   42      ar
    46   39   40       2
    47   39   41      am
    48   42   43      ar
    49   43   44      ar
    50   45   46      ar
    51   45   47      ar
    52   45   48      ar
    53   43   72       1
    54    5   49       1
    55    5   50       1
    56    6   51       1
    57    8   52       1
    58    9   53       1
    59   10   54       1
    60   12   55       1
    61   14   56       1
    62   18   57       1
    63   18   58       1
    64   20   59       1
    65   44   73       1
    66   28   60       1
    67   28   61       1
    68   29   62       1
    69   31   63       1
    70   32   64       1
    71   33   65       1
    72   34   66       1
    73   35   67       1
    74   37   68       1
    75   41   69       1
    76   41   70       1
    77   42   71       1
@<TRIPOS>SUBSTRUCTURE
     1 NDP1248     1 GROUP             4 A     NDP     0 **** NDP A1248
