@<TRIPOS>MOLECULE
4z4p_SAH_1_ligand
   46    48     1     0     0
SMALL
NO_CHARGES


@<TRIPOS>ATOM
     1 N            1.2710     4.3160    -3.1590 N.4          1 SAH5602   1.0000
     2 CA           0.3750     3.3210    -2.6010 C.3          1 SAH5602   0.0000
     3 CB          -0.0790     2.3720    -3.7040 C.3          1 SAH5602   0.0000
     4 CG          -1.1170     3.0350    -4.6010 C.3          1 SAH5602   0.0000
     5 SD          -2.7290     2.5050    -4.1250 S.3          1 SAH5602   0.0000
     6 C            1.0920     2.5450    -1.5370 C.2          1 SAH5602   0.0000
     7 O            2.3020     2.7860    -1.3350 O.co2        1 SAH5602   0.0000
     8 OXT          0.4530     1.6850    -0.8930 O.co2        1 SAH5602  -1.0000
     9 C5'         -3.5620     4.0570    -4.0800 C.3          1 SAH5602   0.0000
    10 C4'         -3.0950     4.8490    -2.8650 C.3          1 SAH5602   0.0000
    11 O4'         -1.8620     5.5090    -3.1630 O.3          1 SAH5602   0.0000
    12 C3'         -4.1100     5.9120    -2.4770 C.3          1 SAH5602   0.0000
    13 O3'         -4.5650     5.6910    -1.1380 O.3          1 SAH5602   0.0000
    14 C2'         -3.3900     7.2420    -2.5670 C.3          1 SAH5602   0.0000
    15 O2'         -3.3770     7.8810    -1.2870 O.3          1 SAH5602   0.0000
    16 C1'         -1.9680     6.9270    -3.0060 C.3          1 SAH5602   0.0000
    17 N9          -1.6840     7.5970    -4.3000 N.pl3        1 SAH5602   0.0000
    18 C8          -1.5450     6.9830    -5.4900 C.2          1 SAH5602   0.0000
    19 N7          -1.2910     7.8790    -6.4770 N.2          1 SAH5602   0.0000
    20 C5          -1.2620     9.1010    -5.9160 C.ar         1 SAH5602   0.0000
    21 C6          -1.0440    10.4890    -6.3880 C.ar         1 SAH5602   0.0000
    22 N6          -0.7980    10.7540    -7.6940 N.pl3        1 SAH5602   0.0000
    23 N1          -1.0990    11.4810    -5.4720 N.ar         1 SAH5602   0.0000
    24 C2          -1.3420    11.2310    -4.1720 C.ar         1 SAH5602   0.0000
    25 N3          -1.5480     9.9980    -3.6740 N.ar         1 SAH5602   0.0000
    26 C4          -1.5220     8.9100    -4.4810 C.ar         1 SAH5602   0.0000
    27 H1           1.5692     4.9390    -2.4358 H            1 SAH5602   0.0000
    28 H2           2.0678     3.8613    -3.5568 H            1 SAH5602   0.0000
    29 HA          -0.4219     3.7754    -2.2028 H            1 SAH5602   0.0000
    30 HB1         -0.4795     1.5553    -3.2885 H            1 SAH5602   0.0000
    31 HB2          0.7122     2.1108    -4.2570 H            1 SAH5602   0.0000
    32 HG1         -0.9488     2.7773    -5.5525 H            1 SAH5602   0.0000
    33 HG2         -1.0518     4.0286    -4.5083 H            1 SAH5602   0.0000
    34 H5'1        -4.5484     3.9043    -4.0193 H            1 SAH5602   0.0000
    35 H5'2        -3.3548     4.5708    -4.9125 H            1 SAH5602   0.0000
    36 H4'         -2.9588     4.2250    -2.0956 H            1 SAH5602   0.0000
    37 H3'         -4.8838     5.8962    -3.1103 H            1 SAH5602   0.0000
    38 H12         -5.3671     5.0940    -1.1528 H            1 SAH5602   0.0000
    39 H2'         -3.8363     7.8304    -3.2412 H            1 SAH5602   0.0000
    40 H14         -3.8479     7.3026    -0.6209 H            1 SAH5602   0.0000
    41 H1'         -1.3207     7.2412    -2.3116 H            1 SAH5602   0.0000
    42 H16         -1.6192     5.9954    -5.6285 H            1 SAH5602   0.0000
    43 H17         -0.6533    11.6968    -7.9943 H            1 SAH5602   0.0000
    44 H18         -0.7611    10.0067    -8.3575 H            1 SAH5602   0.0000
    45 H19         -1.3711    12.0056    -3.5403 H            1 SAH5602   0.0000
    46 H20          0.7936     4.8337    -3.8690 H            1 SAH5602   0.0000
@<TRIPOS>BOND
     1    1    2       1
     2    2    3       1
     3    2    6       1
     4    3    4       1
     5    4    5       1
     6    5    9       1
     7    6    7      ar
     8    6    8      ar
     9    9   10       1
    10   10   11       1
    11   10   12       1
    12   11   16       1
    13   12   13       1
    14   12   14       1
    15   14   15       1
    16   14   16       1
    17   16   17       1
    18   17   18       1
    19   17   26       1
    20   18   19       2
    21   19   20       1
    22   20   21      ar
    23   20   26      ar
    24   21   22       1
    25   21   23      ar
    26   23   24      ar
    27   24   25      ar
    28   25   26      ar
    29    1   27       1
    30    1   28       1
    31    2   29       1
    32    3   30       1
    33    3   31       1
    34    4   32       1
    35    4   33       1
    36    1   46       1
    37    9   34       1
    38    9   35       1
    39   10   36       1
    40   12   37       1
    41   13   38       1
    42   14   39       1
    43   15   40       1
    44   16   41       1
    45   18   42       1
    46   22   43       1
    47   22   44       1
    48   24   45       1
@<TRIPOS>SUBSTRUCTURE
     1 SAH5602     1 GROUP             4 A     SAH     0 **** SAH A5602
