@<TRIPOS>MOLECULE
1q5m_NDP_2_ligand
   73    77     1     0     0
SMALL
NO_CHARGES


@<TRIPOS>ATOM
     1 PA          40.3560    10.7700    -0.6030 P.3          1 NDP1004   0.0000
     2 O1A         40.2280    10.7980     0.8730 O.co2        1 NDP1004   0.0000
     3 O2A         41.6070    10.3260    -1.1770 O.co2        1 NDP1004  -1.0000
     4 O5B         39.8780    12.1690    -1.1240 O.3          1 NDP1004   0.0000
     5 C5B         39.5990    12.4430    -2.4660 C.3          1 NDP1004   0.0000
     6 C4B         39.1150    13.9050    -2.5170 C.3          1 NDP1004   0.0000
     7 O4B         40.2320    14.7610    -2.1940 O.3          1 NDP1004   0.0000
     8 C3B         38.6640    14.3050    -3.8750 C.3          1 NDP1004   0.0000
     9 O3B         37.5200    15.1810    -3.8340 O.3          1 NDP1004   0.0000
    10 C2B         39.8550    15.0230    -4.5010 C.3          1 NDP1004   0.0000
    11 O2B         39.4530    15.9910    -5.4920 O.3          1 NDP1004   0.0000
    12 C1B         40.4200    15.7310    -3.2690 C.3          1 NDP1004   0.0000
    13 N9A         41.8660    15.9290    -3.3280 N.pl3        1 NDP1004   0.0000
    14 C8A         42.8790    15.0780    -3.7110 C.2          1 NDP1004   0.0000
    15 N7A         44.1030    15.5850    -3.5820 N.2          1 NDP1004   0.0000
    16 C5A         43.9250    16.8570    -3.0600 C.ar         1 NDP1004   0.0000
    17 C6A         44.8430    17.8640    -2.8120 C.ar         1 NDP1004   0.0000
    18 N6A         46.1170    17.7030    -2.9120 N.pl3        1 NDP1004   0.0000
    19 N1A         44.2660    19.0760    -2.3890 N.ar         1 NDP1004   0.0000
    20 C2A         42.9020    19.1690    -2.1760 C.ar         1 NDP1004   0.0000
    21 N3A         42.0020    18.1890    -2.4580 N.ar         1 NDP1004   0.0000
    22 C4A         42.5880    17.0390    -2.9180 C.ar         1 NDP1004   0.0000
    23 O3          39.1370     9.9110    -1.2620 O.3          1 NDP1004   0.0000
    24 PN          38.5500     8.4580    -1.2730 P.3          1 NDP1004   0.0000
    25 O1N         37.5390     8.3730    -0.3120 O.co2        1 NDP1004   0.0000
    26 O2N         38.2870     8.2500    -2.7530 O.co2        1 NDP1004  -1.0000
    27 O5D         39.7280     7.4750    -0.8070 O.3          1 NDP1004   0.0000
    28 C5D         40.8100     7.1740    -1.6640 C.3          1 NDP1004   0.0000
    29 C4D         40.6950     5.8500    -2.3540 C.3          1 NDP1004   0.0000
    30 O4D         40.6490     4.7970    -1.3260 O.3          1 NDP1004   0.0000
    31 C3D         39.5530     5.5420    -3.2110 C.3          1 NDP1004   0.0000
    32 O3D         39.6190     6.2820    -4.4520 O.3          1 NDP1004   0.0000
    33 C2D         39.5570     4.0580    -3.3260 C.3          1 NDP1004   0.0000
    34 O2D         40.6370     3.6890    -4.2230 O.3          1 NDP1004   0.0000
    35 C1D         39.9410     3.6600    -1.8800 C.3          1 NDP1004   0.0000
    36 N1N         38.7610     3.4310    -0.9480 N.ar         1 NDP1004   1.0000
    37 C2N         38.5510     2.1350    -0.4650 C.ar         1 NDP1004   0.0000
    38 C3N         37.4190     1.8930     0.2820 C.ar         1 NDP1004   0.0000
    39 C7N         37.3070     0.4820     0.8140 C.2          1 NDP1004   0.0000
    40 O7N         36.1550     0.1960     1.2830 O.2          1 NDP1004   0.0000
    41 N7N         38.2980    -0.3600     0.8050 N.am         1 NDP1004   0.0000
    42 C4N         36.5460     2.8860     0.6740 C.ar         1 NDP1004   0.0000
    43 C5N         36.8790     4.2350     0.2610 C.ar         1 NDP1004   0.0000
    44 C6N         38.0270     4.4880    -0.4830 C.ar         1 NDP1004   0.0000
    45 P2B         39.7940    15.8050    -7.0470 P.3          1 NDP1004   0.0000
    46 O1X         39.8090    14.3350    -7.3520 O.co2        1 NDP1004   0.0000
    47 O2X         38.6150    16.5500    -7.6750 O.co2        1 NDP1004  -1.0000
    48 O3X         41.1260    16.4210    -7.2820 O.co2        1 NDP1004  -1.0000
    49 H5B1        38.8848    11.8298    -2.8034 H            1 NDP1004   0.0000
    50 H5B2        40.4235    12.3316    -3.0209 H            1 NDP1004   0.0000
    51 H4B         38.3765    14.0436    -1.8572 H            1 NDP1004   0.0000
    52 H3B         38.4439    13.4893    -4.4101 H            1 NDP1004   0.0000
    53 H5          36.9714    14.9752    -3.0236 H            1 NDP1004   0.0000
    54 H2B         40.5134    14.3713    -4.8777 H            1 NDP1004   0.0000
    55 H1B         39.9379    16.5869    -3.0820 H            1 NDP1004   0.0000
    56 H8A         42.7090    14.1554    -4.0574 H            1 NDP1004   0.0000
    57 H6A1        46.7340    18.4664    -2.7207 H            1 NDP1004   0.0000
    58 H6A2        46.4891    16.8146    -3.1810 H            1 NDP1004   0.0000
    59 H2A         42.5517    20.0204    -1.7855 H            1 NDP1004   0.0000
    60 H5D1        41.6496     7.1729    -1.1209 H            1 NDP1004   0.0000
    61 H5D2        40.8655     7.8879    -2.3620 H            1 NDP1004   0.0000
    62 H4D         41.5262     5.7138    -2.8930 H            1 NDP1004   0.0000
    63 H3D         38.7200     5.8148    -2.7297 H            1 NDP1004   0.0000
    64 H16         39.6165     7.2626    -4.2559 H            1 NDP1004   0.0000
    65 H2D         38.6724     3.6876    -3.6094 H            1 NDP1004   0.0000
    66 H18         40.9891     2.7884    -3.9680 H            1 NDP1004   0.0000
    67 H1D         40.5344     2.8552    -1.8896 H            1 NDP1004   0.0000
    68 H2N         39.2053     1.4035    -0.6569 H            1 NDP1004   0.0000
    69 H7N1        38.1732    -1.2830     1.1689 H            1 NDP1004   0.0000
    70 H7N2        39.1849    -0.0845     0.4342 H            1 NDP1004   0.0000
    71 H4N         35.7281     2.6864     1.2136 H            1 NDP1004   0.0000
    72 H5N         36.2768     4.9923     0.5137 H            1 NDP1004   0.0000
    73 H6N         38.3112     5.4274    -0.6749 H            1 NDP1004   0.0000
@<TRIPOS>BOND
     1    1    2      ar
     2    1    3      ar
     3    1    4       1
     4    1   23       1
     5    4    5       1
     6    5    6       1
     7    6    7       1
     8    6    8       1
     9    7   12       1
    10    8    9       1
    11    8   10       1
    12   10   11       1
    13   10   12       1
    14   11   45       1
    15   12   13       1
    16   13   14       1
    17   13   22       1
    18   14   15       2
    19   15   16       1
    20   16   17      ar
    21   16   22      ar
    22   17   18       1
    23   17   19      ar
    24   19   20      ar
    25   20   21      ar
    26   21   22      ar
    27   23   24       1
    28   24   25      ar
    29   24   26      ar
    30   24   27       1
    31   27   28       1
    32   28   29       1
    33   29   30       1
    34   29   31       1
    35   30   35       1
    36   31   32       1
    37   31   33       1
    38   33   34       1
    39   33   35       1
    40   35   36       1
    41   36   37      ar
    42   36   44      ar
    43   37   38      ar
    44   38   39       1
    45   38   42      ar
    46   39   40       2
    47   39   41      am
    48   42   43      ar
    49   43   44      ar
    50   45   46      ar
    51   45   47      ar
    52   45   48      ar
    53   43   72       1
    54    5   49       1
    55    5   50       1
    56    6   51       1
    57    8   52       1
    58    9   53       1
    59   10   54       1
    60   12   55       1
    61   14   56       1
    62   18   57       1
    63   18   58       1
    64   20   59       1
    65   44   73       1
    66   28   60       1
    67   28   61       1
    68   29   62       1
    69   31   63       1
    70   32   64       1
    71   33   65       1
    72   34   66       1
    73   35   67       1
    74   37   68       1
    75   41   69       1
    76   41   70       1
    77   42   71       1
@<TRIPOS>SUBSTRUCTURE
     1 NDP1004     1 GROUP             4 B     NDP     0 **** NDP B1004
