@<TRIPOS>MOLECULE
2cdu_ADP_4_ligand
   39    41     1     0     0
SMALL
NO_CHARGES


@<TRIPOS>ATOM
     1 PB           5.8410     8.8670    49.9700 P.3          1 ADP501   0.0000
     2 O1B          5.9670     8.7220    51.4380 O.co2        1 ADP501   0.0000
     3 O2B          5.9630     7.4570    49.3560 O.co2        1 ADP501  -1.0000
     4 O3B          7.0050     9.8500    49.3860 O.co2        1 ADP501  -1.0000
     5 PA           3.7950    10.8340    50.4610 P.3          1 ADP501   0.0000
     6 O1A          4.8000    11.7350    51.0780 O.co2        1 ADP501   0.0000
     7 O2A          2.8340    11.6620    49.5800 O.co2        1 ADP501  -1.0000
     8 O3A          4.4630     9.6240    49.5950 O.3          1 ADP501   0.0000
     9 O5'          2.9490    10.0870    51.6300 O.3          1 ADP501   0.0000
    10 C5'          2.0110    10.8580    52.3440 C.3          1 ADP501   0.0000
    11 C4'          0.6760    10.1270    52.3780 C.3          1 ADP501   0.0000
    12 O4'          0.4130     9.8600    53.7400 O.3          1 ADP501   0.0000
    13 C3'         -0.4940    10.9500    51.8190 C.3          1 ADP501   0.0000
    14 O3'         -1.2890    10.1420    50.9780 O.3          1 ADP501   0.0000
    15 C2'         -1.2440    11.4110    53.0500 C.3          1 ADP501   0.0000
    16 O2'         -2.6490    11.4400    52.9000 O.3          1 ADP501   0.0000
    17 C1'         -0.8740    10.3310    54.0500 C.3          1 ADP501   0.0000
    18 N9          -0.8650    10.7470    55.4550 N.pl3        1 ADP501   0.0000
    19 C8          -0.1560    11.7540    56.0750 C.2          1 ADP501   0.0000
    20 N7          -0.4570    11.7280    57.4040 N.2          1 ADP501   0.0000
    21 C5          -1.3390    10.7250    57.6110 C.ar         1 ADP501   0.0000
    22 C6          -1.9850    10.2610    58.7450 C.ar         1 ADP501   0.0000
    23 N6          -1.8030    10.8700    59.9090 N.pl3        1 ADP501   0.0000
    24 N1          -2.8430     9.2000    58.6180 N.ar         1 ADP501   0.0000
    25 C2          -3.0870     8.5960    57.4030 C.ar         1 ADP501   0.0000
    26 N3          -2.4560     9.0580    56.2700 N.ar         1 ADP501   0.0000
    27 C4          -1.6010    10.1060    56.3890 C.ar         1 ADP501   0.0000
    28 H5'1         1.8951    11.7434    51.8938 H            1 ADP501   0.0000
    29 H5'2         2.3377    10.9995    53.2785 H            1 ADP501   0.0000
    30 H4'          0.7515     9.2659    51.8753 H            1 ADP501   0.0000
    31 H3'         -0.1480    11.7390    51.3113 H            1 ADP501   0.0000
    32 H5          -1.6487     9.3693    51.5010 H            1 ADP501   0.0000
    33 H2'         -0.9053    12.3014    53.3541 H            1 ADP501   0.0000
    34 H7          -2.9801    10.5216    52.6833 H            1 ADP501   0.0000
    35 H1'         -1.5195     9.5738    53.9495 H            1 ADP501   0.0000
    36 H9           0.4702    12.3924    55.6274 H            1 ADP501   0.0000
    37 H10         -2.2697    10.5344    60.7272 H            1 ADP501   0.0000
    38 H11         -1.1990    11.6648    59.9684 H            1 ADP501   0.0000
    39 H12         -3.7205     7.8245    57.3448 H            1 ADP501   0.0000
@<TRIPOS>BOND
     1    1    2      ar
     2    1    3      ar
     3    1    4      ar
     4    1    8       1
     5    5    6      ar
     6    5    7      ar
     7    5    8       1
     8    5    9       1
     9    9   10       1
    10   10   11       1
    11   11   12       1
    12   11   13       1
    13   12   17       1
    14   13   14       1
    15   13   15       1
    16   15   16       1
    17   15   17       1
    18   17   18       1
    19   18   19       1
    20   18   27       1
    21   19   20       2
    22   20   21       1
    23   21   22      ar
    24   21   27      ar
    25   22   23       1
    26   22   24      ar
    27   24   25      ar
    28   25   26      ar
    29   26   27      ar
    30   25   39       1
    31   23   38       1
    32   23   37       1
    33   10   28       1
    34   10   29       1
    35   11   30       1
    36   13   31       1
    37   14   32       1
    38   15   33       1
    39   16   34       1
    40   17   35       1
    41   19   36       1
@<TRIPOS>SUBSTRUCTURE
     1 ADP501      1 GROUP             4 B     ADP     0 **** ADP B 501
