@<TRIPOS>MOLECULE
3uce_NDP_2_ligand
   76    80     1     0     0
SMALL
NO_CHARGES


@<TRIPOS>ATOM
     1 PA          23.8540   -31.2820    10.9480 P.3          1 NDP500   0.0000
     2 O1A         23.2740   -31.8840     9.6460 O.co2        1 NDP500   0.0000
     3 O2A         24.5100   -32.3470    11.9020 O.co2        1 NDP500  -1.0000
     4 O5B         24.9390   -30.2580    10.5380 O.3          1 NDP500   0.0000
     5 C5B         25.8900   -29.7990    11.4420 C.3          1 NDP500   0.0000
     6 C4B         26.8980   -28.8800    10.7430 C.3          1 NDP500   0.0000
     7 O4B         27.7660   -28.2180    11.6620 O.3          1 NDP500   0.0000
     8 C3B         27.7350   -29.5890     9.7480 C.3          1 NDP500   0.0000
     9 O3B         27.8280   -28.8200     8.5880 O.3          1 NDP500   0.0000
    10 C2B         28.9980   -29.6640    10.4090 C.3          1 NDP500   0.0000
    11 O2B         30.0020   -29.8630     9.4430 O.3          1 NDP500   0.0000
    12 C1B         29.0370   -28.3410    11.1350 C.3          1 NDP500   0.0000
    13 N9A         30.0040   -28.2530    12.2030 N.pl3        1 NDP500   0.0000
    14 C8A         30.0630   -29.0780    13.2650 C.2          1 NDP500   0.0000
    15 N7A         31.0820   -28.6980    14.0560 N.2          1 NDP500   0.0000
    16 C5A         31.6580   -27.6230    13.4870 C.ar         1 NDP500   0.0000
    17 C6A         32.7450   -26.8480    13.8470 C.ar         1 NDP500   0.0000
    18 N6A         33.4300   -27.1570    15.0660 N.pl3        1 NDP500   0.0000
    19 N1A         33.1060   -25.8180    13.0540 N.ar         1 NDP500   0.0000
    20 C2A         32.4390   -25.5410    11.9210 C.ar         1 NDP500   0.0000
    21 N3A         31.3910   -26.2890    11.5550 N.ar         1 NDP500   0.0000
    22 C4A         30.9910   -27.3320    12.3150 C.ar         1 NDP500   0.0000
    23 O3          22.8400   -30.5350    11.9150 O.3          1 NDP500   0.0000
    24 PN          21.4300   -29.8640    11.5590 P.3          1 NDP500   0.0000
    25 O1N         20.3740   -30.9140    11.7100 O.co2        1 NDP500   0.0000
    26 O2N         21.4530   -29.1800    10.1870 O.co2        1 NDP500  -1.0000
    27 O5D         21.2740   -28.7180    12.6630 O.3          1 NDP500   0.0000
    28 C5D         21.7330   -27.3960    12.5030 C.3          1 NDP500   0.0000
    29 C4D         21.3800   -26.5100    13.6480 C.3          1 NDP500   0.0000
    30 O4D         20.0220   -26.6330    13.9260 O.3          1 NDP500   0.0000
    31 C3D         22.1020   -26.9140    14.9050 C.3          1 NDP500   0.0000
    32 O3D         22.3480   -25.8020    15.7300 O.3          1 NDP500   0.0000
    33 C2D         21.1900   -27.7910    15.5410 C.3          1 NDP500   0.0000
    34 O2D         21.3710   -27.8400    16.9140 O.3          1 NDP500   0.0000
    35 C1D         19.8850   -27.1450    15.2540 C.3          1 NDP500   0.0000
    36 N1N         18.7740   -28.0830    15.2540 N.pl3        1 NDP500   0.0000
    37 C2N         18.3160   -29.1880    14.5170 C.2          1 NDP500   0.0000
    38 C3N         17.3160   -30.1010    15.0940 C.2          1 NDP500   0.0000
    39 C7N         17.0590   -31.3600    14.3360 C.2          1 NDP500   0.0000
    40 O7N         16.2440   -32.1660    14.7720 O.2          1 NDP500   0.0000
    41 N7N         17.7860   -31.6130    13.0720 N.am         1 NDP500   0.0000
    42 C4N         16.4600   -29.6800    16.2430 C.3          1 NDP500   0.0000
    43 C5N         16.9240   -28.4450    16.9490 C.3          1 NDP500   0.0000
    44 C6N         18.0450   -27.6210    16.3990 C.3          1 NDP500   0.0000
    45 P2B         31.4610   -30.4030     9.8350 P.3          1 NDP500   0.0000
    46 O1X         32.2250   -30.3710     8.5210 O.co2        1 NDP500   0.0000
    47 O2X         31.3660   -31.7760    10.4290 O.co2        1 NDP500  -1.0000
    48 O3X         32.0820   -29.4610    10.8450 O.co2        1 NDP500  -1.0000
    49 H5B1        26.3748   -30.5806    11.8345 H            1 NDP500   0.0000
    50 H5B2        25.4320   -29.2905    12.1712 H            1 NDP500   0.0000
    51 H4B         26.3796   -28.1769    10.2563 H            1 NDP500   0.0000
    52 H3B         27.3729   -30.5002     9.5518 H            1 NDP500   0.0000
    53 H5          28.3931   -29.2981     7.9156 H            1 NDP500   0.0000
    54 H2B         28.9984   -30.4176    11.0663 H            1 NDP500   0.0000
    55 H1B         29.1981   -27.6047    10.4778 H            1 NDP500   0.0000
    56 H8A         29.4490   -29.8482    13.4377 H            1 NDP500   0.0000
    57 H6A1        34.2190   -26.6113    15.3483 H            1 NDP500   0.0000
    58 H6A2        33.1193   -27.9184    15.6349 H            1 NDP500   0.0000
    59 H2A         32.7267   -24.7729    11.3489 H            1 NDP500   0.0000
    60 H5D1        21.3275   -27.0172    11.6711 H            1 NDP500   0.0000
    61 H5D2        22.7285   -27.4141    12.4102 H            1 NDP500   0.0000
    62 H4D         21.5961   -25.5601    13.4221 H            1 NDP500   0.0000
    63 H3D         22.9549   -27.3881    14.6864 H            1 NDP500   0.0000
    64 H16         21.6279   -25.1213    15.5954 H            1 NDP500   0.0000
    65 H2D         21.2333   -28.7062    15.1403 H            1 NDP500   0.0000
    66 H18         21.1062   -28.7427    17.2531 H            1 NDP500   0.0000
    67 H1D         19.7140   -26.4007    15.8996 H            1 NDP500   0.0000
    68 H2N         18.6707   -29.3548    13.5970 H            1 NDP500   0.0000
    69 H7N1        17.6186   -32.4548    12.5588 H            1 NDP500   0.0000
    70 H7N2        18.4446   -30.9422    12.7311 H            1 NDP500   0.0000
    71 H4N1        16.4385   -30.4283    16.9060 H            1 NDP500   0.0000
    72 H4N2        15.5361   -29.5133    15.8985 H            1 NDP500   0.0000
    73 H5N1        17.2029   -28.7292    17.8663 H            1 NDP500   0.0000
    74 H5N2        16.1309   -27.8394    17.0144 H            1 NDP500   0.0000
    75 H6N1        17.6583   -26.7313    16.1564 H            1 NDP500   0.0000
    76 H6N2        18.7090   -27.5056    17.1378 H            1 NDP500   0.0000
@<TRIPOS>BOND
     1    1    2      ar
     2    1    3      ar
     3    1    4       1
     4    1   23       1
     5    4    5       1
     6    5    6       1
     7    6    7       1
     8    6    8       1
     9    7   12       1
    10    8    9       1
    11    8   10       1
    12   10   11       1
    13   10   12       1
    14   11   45       1
    15   12   13       1
    16   13   14       1
    17   13   22       1
    18   14   15       2
    19   15   16       1
    20   16   17      ar
    21   16   22      ar
    22   17   18       1
    23   17   19      ar
    24   19   20      ar
    25   20   21      ar
    26   21   22      ar
    27   23   24       1
    28   24   25      ar
    29   24   26      ar
    30   24   27       1
    31   27   28       1
    32   28   29       1
    33   29   30       1
    34   29   31       1
    35   30   35       1
    36   31   32       1
    37   31   33       1
    38   33   34       1
    39   33   35       1
    40   35   36       1
    41   36   37       1
    42   36   44       1
    43   37   38       2
    44   38   39       1
    45   38   42       1
    46   39   40       2
    47   39   41      am
    48   42   43       1
    49   43   44       1
    50   45   46      ar
    51   45   47      ar
    52   45   48      ar
    53   44   75       1
    54    5   49       1
    55    5   50       1
    56    6   51       1
    57    8   52       1
    58    9   53       1
    59   10   54       1
    60   12   55       1
    61   14   56       1
    62   18   57       1
    63   18   58       1
    64   20   59       1
    65   44   76       1
    66   28   60       1
    67   28   61       1
    68   29   62       1
    69   31   63       1
    70   32   64       1
    71   33   65       1
    72   34   66       1
    73   35   67       1
    74   37   68       1
    75   41   69       1
    76   41   70       1
    77   42   71       1
    78   42   72       1
    79   43   73       1
    80   43   74       1
@<TRIPOS>SUBSTRUCTURE
     1 NDP500      1 GROUP             4 B     NDP     0 **** NDP B 500
