@<TRIPOS>MOLECULE
4ww0_ADP_2_ligand
   39    41     1     0     0
SMALL
NO_CHARGES


@<TRIPOS>ATOM
     1 PB          29.7250    25.5570    18.4500 P.3          1 ADP702   0.0000
     2 O1B         30.2510    24.2860    17.7820 O.co2        1 ADP702   0.0000
     3 O2B         28.1610    25.6680    18.2840 O.co2        1 ADP702  -1.0000
     4 O3B         30.1810    25.6250    19.8440 O.co2        1 ADP702  -1.0000
     5 PA          30.8970    27.0990    16.2570 P.3          1 ADP702   0.0000
     6 O1A         29.7650    26.6940    15.2880 O.co2        1 ADP702   0.0000
     7 O2A         32.1660    26.3460    16.0730 O.co2        1 ADP702  -1.0000
     8 O3A         30.3270    26.8370    17.7190 O.3          1 ADP702   0.0000
     9 O5'         31.1680    28.6740    16.1340 O.3          1 ADP702   0.0000
    10 C5'         30.2880    29.6470    15.5420 C.3          1 ADP702   0.0000
    11 C4'         31.0820    30.7510    14.8830 C.3          1 ADP702   0.0000
    12 O4'         31.6090    31.6590    15.8720 O.3          1 ADP702   0.0000
    13 C3'         32.2480    30.3240    13.9920 C.3          1 ADP702   0.0000
    14 O3'         32.2180    30.9890    12.7360 O.3          1 ADP702   0.0000
    15 C2'         33.4880    30.6780    14.8160 C.3          1 ADP702   0.0000
    16 O2'         34.5890    31.0590    13.9940 O.3          1 ADP702   0.0000
    17 C1'         33.0000    31.8330    15.7020 C.3          1 ADP702   0.0000
    18 N9          33.6220    31.8190    17.0240 N.pl3        1 ADP702   0.0000
    19 C8          33.1240    31.2020    18.1420 C.2          1 ADP702   0.0000
    20 N7          33.9970    31.0680    19.1120 N.2          1 ADP702   0.0000
    21 C5          35.1510    31.6420    18.5980 C.ar         1 ADP702   0.0000
    22 C6          36.4780    31.7130    19.0830 C.ar         1 ADP702   0.0000
    23 N6          36.8850    31.1550    20.2310 N.pl3        1 ADP702   0.0000
    24 N1          37.4050    32.3060    18.2930 N.ar         1 ADP702   0.0000
    25 C2          37.0300    32.7770    17.1010 C.ar         1 ADP702   0.0000
    26 N3          35.8210    32.7450    16.5320 N.ar         1 ADP702   0.0000
    27 C4          34.9220    32.1470    17.3290 C.ar         1 ADP702   0.0000
    28 H5'1        29.7065    30.0404    16.2541 H            1 ADP702   0.0000
    29 H5'2        29.7164    29.1982    14.8551 H            1 ADP702   0.0000
    30 H4'         30.4476    31.2714    14.3114 H            1 ADP702   0.0000
    31 H3'         32.2137    29.3351    13.8476 H            1 ADP702   0.0000
    32 H5          31.7976    31.8897    12.8457 H            1 ADP702   0.0000
    33 H2'         33.7470    29.8997    15.3880 H            1 ADP702   0.0000
    34 H7          35.1629    31.7125    14.4874 H            1 ADP702   0.0000
    35 H1'         33.1805    32.7070    15.2508 H            1 ADP702   0.0000
    36 H9          32.1791    30.8824    18.2121 H            1 ADP702   0.0000
    37 H10         37.8389    31.2416    20.5184 H            1 ADP702   0.0000
    38 H11         36.2349    30.6519    20.8005 H            1 ADP702   0.0000
    39 H12         37.7508    33.2122    16.5615 H            1 ADP702   0.0000
@<TRIPOS>BOND
     1    1    2      ar
     2    1    3      ar
     3    1    4      ar
     4    1    8       1
     5    5    6      ar
     6    5    7      ar
     7    5    8       1
     8    5    9       1
     9    9   10       1
    10   10   11       1
    11   11   12       1
    12   11   13       1
    13   12   17       1
    14   13   14       1
    15   13   15       1
    16   15   16       1
    17   15   17       1
    18   17   18       1
    19   18   19       1
    20   18   27       1
    21   19   20       2
    22   20   21       1
    23   21   22      ar
    24   21   27      ar
    25   22   23       1
    26   22   24      ar
    27   24   25      ar
    28   25   26      ar
    29   26   27      ar
    30   25   39       1
    31   23   38       1
    32   23   37       1
    33   10   28       1
    34   10   29       1
    35   11   30       1
    36   13   31       1
    37   14   32       1
    38   15   33       1
    39   16   34       1
    40   17   35       1
    41   19   36       1
@<TRIPOS>SUBSTRUCTURE
     1 ADP702      1 GROUP             4 B     ADP     0 **** ADP B 702
