@<TRIPOS>MOLECULE
2ahr_NAP_3_ligand
   73    77     1     0     0
SMALL
NO_CHARGES


@<TRIPOS>ATOM
     1 PA          53.2910   100.0450    21.0280 P.3          1 NAP1502   0.0000
     2 O1A         53.5130    98.5730    21.0600 O.co2        1 NAP1502   0.0000
     3 O2A         52.6000   100.5570    22.2380 O.co2        1 NAP1502  -1.0000
     4 O5B         52.4330   100.4430    19.7160 O.3          1 NAP1502   0.0000
     5 C5B         52.7660   100.0320    18.4020 C.3          1 NAP1502   0.0000
     6 C4B         51.4740   100.0910    17.5960 C.3          1 NAP1502   0.0000
     7 O4B         51.6420    99.7330    16.2320 O.3          1 NAP1502   0.0000
     8 C3B         50.4580    99.1350    18.2090 C.3          1 NAP1502   0.0000
     9 O3B         49.3820    99.8800    18.7250 O.3          1 NAP1502   0.0000
    10 C2B         50.0400    98.2230    17.0720 C.3          1 NAP1502   0.0000
    11 O2B         48.6500    97.9650    17.0300 O.3          1 NAP1502   0.0000
    12 C1B         50.4930    98.9930    15.8370 C.3          1 NAP1502   0.0000
    13 N9A         50.6790    98.0880    14.6740 N.pl3        1 NAP1502   0.0000
    14 C8A         51.0620    96.7670    14.6840 C.2          1 NAP1502   0.0000
    15 N7A         51.0840    96.3070    13.4090 N.2          1 NAP1502   0.0000
    16 C5A         50.7110    97.3120    12.5780 C.ar         1 NAP1502   0.0000
    17 C6A         50.5610    97.3900    11.1870 C.ar         1 NAP1502   0.0000
    18 N6A         50.8220    96.3410    10.4040 N.pl3        1 NAP1502   0.0000
    19 N1A         50.1520    98.5850    10.6180 N.ar         1 NAP1502   0.0000
    20 C2A         49.9000    99.6850    11.4220 C.ar         1 NAP1502   0.0000
    21 N3A         50.0440    99.6030    12.7970 N.ar         1 NAP1502   0.0000
    22 C4A         50.4460    98.4350    13.3660 C.ar         1 NAP1502   0.0000
    23 O3          54.6840   100.8350    20.7920 O.3          1 NAP1502   0.0000
    24 PN          55.0300   102.2780    21.4200 P.3          1 NAP1502   0.0000
    25 O1N         55.7100   102.0520    22.7220 O.co2        1 NAP1502   0.0000
    26 O2N         53.8380   103.1730    21.3810 O.co2        1 NAP1502  -1.0000
    27 O5D         56.1700   102.8260    20.4200 O.3          1 NAP1502   0.0000
    28 C5D         55.8920   103.6180    19.2830 C.3          1 NAP1502   0.0000
    29 C4D         57.1740   104.2040    18.6930 C.3          1 NAP1502   0.0000
    30 O4D         57.6270   105.3280    19.4300 O.3          1 NAP1502   0.0000
    31 C3D         58.3210   103.1980    18.6280 C.3          1 NAP1502   0.0000
    32 O3D         58.7910   103.2070    17.2950 O.3          1 NAP1502   0.0000
    33 C2D         59.3640   103.7080    19.6160 C.3          1 NAP1502   0.0000
    34 O2D         60.6760   103.5810    19.1160 O.3          1 NAP1502   0.0000
    35 C1D         58.9880   105.1810    19.8170 C.3          1 NAP1502   0.0000
    36 N1N         59.0870   105.6770    21.2070 N.ar         1 NAP1502   1.0000
    37 C2N         58.4890   104.9890    22.2380 C.ar         1 NAP1502   0.0000
    38 C3N         58.5570   105.4830    23.5400 C.ar         1 NAP1502   0.0000
    39 C7N         57.6630   104.9180    24.6100 C.2          1 NAP1502   0.0000
    40 O7N         57.7950   105.4420    25.9160 O.2          1 NAP1502   0.0000
    41 N7N         56.7770   103.9620    24.3130 N.am         1 NAP1502   0.0000
    42 C4N         59.2300   106.6850    23.7800 C.ar         1 NAP1502   0.0000
    43 C5N         59.8190   107.3830    22.7260 C.ar         1 NAP1502   0.0000
    44 C6N         59.7360   106.8650    21.4350 C.ar         1 NAP1502   0.0000
    45 P2B         47.9670    96.7950    17.9090 P.3          1 NAP1502   0.0000
    46 O1X         46.6470    96.3870    17.2830 O.co2        1 NAP1502   0.0000
    47 O2X         48.8610    95.5800    18.0150 O.co2        1 NAP1502  -1.0000
    48 O3X         47.7060    97.3790    19.2820 O.co2        1 NAP1502  -1.0000
    49 H5B1        53.1260    99.0991    18.4116 H            1 NAP1502   0.0000
    50 H5B2        53.4481   100.6484    18.0086 H            1 NAP1502   0.0000
    51 H4B         51.1088   101.0208    17.6417 H            1 NAP1502   0.0000
    52 H3B         50.8860    98.6006    18.9378 H            1 NAP1502   0.0000
    53 H5          48.7103    99.2593    19.1294 H            1 NAP1502   0.0000
    54 H2B         50.5406    97.3594    17.1322 H            1 NAP1502   0.0000
    55 H1B         49.7735    99.6470    15.6035 H            1 NAP1502   0.0000
    56 H8A         51.2875    96.2330    15.4989 H            1 NAP1502   0.0000
    57 H6A1        50.7090    96.4162     9.4133 H            1 NAP1502   0.0000
    58 H6A2        51.1306    95.4799    10.8081 H            1 NAP1502   0.0000
    59 H2A         49.6112   100.5469    11.0052 H            1 NAP1502   0.0000
    60 H5D1        55.2826   104.3656    19.5470 H            1 NAP1502   0.0000
    61 H5D2        55.4439   103.0510    18.5918 H            1 NAP1502   0.0000
    62 H4D         56.9749   104.5059    17.7607 H            1 NAP1502   0.0000
    63 H3D         58.0058   102.2847    18.8860 H            1 NAP1502   0.0000
    64 H16         58.0495   102.9426    16.6783 H            1 NAP1502   0.0000
    65 H2D         59.2813   103.2150    20.4821 H            1 NAP1502   0.0000
    66 H18         61.3257   103.9260    19.7934 H            1 NAP1502   0.0000
    67 H1D         59.5600   105.7488    19.2251 H            1 NAP1502   0.0000
    68 H2N         58.0051   104.1337    22.0531 H            1 NAP1502   0.0000
    69 H7N1        56.1849   103.5895    25.0276 H            1 NAP1502   0.0000
    70 H7N2        56.7063   103.6193    23.3762 H            1 NAP1502   0.0000
    71 H4N         59.2892   107.0455    24.7109 H            1 NAP1502   0.0000
    72 H5N         60.2957   108.2457    22.8948 H            1 NAP1502   0.0000
    73 H6N         60.1507   107.3605    20.6718 H            1 NAP1502   0.0000
@<TRIPOS>BOND
     1    1    2      ar
     2    1    3      ar
     3    1    4       1
     4    1   23       1
     5    4    5       1
     6    5    6       1
     7    6    7       1
     8    6    8       1
     9    7   12       1
    10    8    9       1
    11    8   10       1
    12   10   11       1
    13   10   12       1
    14   11   45       1
    15   12   13       1
    16   13   14       1
    17   13   22       1
    18   14   15       2
    19   15   16       1
    20   16   17      ar
    21   16   22      ar
    22   17   18       1
    23   17   19      ar
    24   19   20      ar
    25   20   21      ar
    26   21   22      ar
    27   23   24       1
    28   24   25      ar
    29   24   26      ar
    30   24   27       1
    31   27   28       1
    32   28   29       1
    33   29   30       1
    34   29   31       1
    35   30   35       1
    36   31   32       1
    37   31   33       1
    38   33   34       1
    39   33   35       1
    40   35   36       1
    41   36   37      ar
    42   36   44      ar
    43   37   38      ar
    44   38   39       1
    45   38   42      ar
    46   39   40       2
    47   39   41      am
    48   42   43      ar
    49   43   44      ar
    50   45   46      ar
    51   45   47      ar
    52   45   48      ar
    53   43   72       1
    54    5   49       1
    55    5   50       1
    56    6   51       1
    57    8   52       1
    58    9   53       1
    59   10   54       1
    60   12   55       1
    61   14   56       1
    62   18   57       1
    63   18   58       1
    64   20   59       1
    65   44   73       1
    66   28   60       1
    67   28   61       1
    68   29   62       1
    69   31   63       1
    70   32   64       1
    71   33   65       1
    72   34   66       1
    73   35   67       1
    74   37   68       1
    75   41   69       1
    76   41   70       1
    77   42   71       1
@<TRIPOS>SUBSTRUCTURE
     1 NAP1502     1 GROUP             4 C     NAP     0 **** NAP C1502
