@<TRIPOS>MOLECULE
5bnt_NAP_2_ligand
   42    44     1     0     0
SMALL
NO_CHARGES


@<TRIPOS>ATOM
     1 PA         -18.4830    26.2390     9.2930 P.3          1 NAP500   0.0000
     2 O1A        -19.9400    26.1430     8.9080 O.co2        1 NAP500   0.0000
     3 O2A        -18.0210    27.3590    10.1940 O.co2        1 NAP500  -1.0000
     4 O5B        -17.6120    26.2800     7.9410 O.3          1 NAP500   0.0000
     5 C5B        -17.9340    27.2410     6.9400 C.3          1 NAP500   0.0000
     6 C4B        -17.0490    27.0690     5.7150 C.3          1 NAP500   0.0000
     7 O4B        -17.5780    27.9060     4.6860 O.3          1 NAP500   0.0000
     8 C3B        -15.6250    27.5250     5.9920 C.3          1 NAP500   0.0000
     9 O3B        -14.7200    26.4180     5.9480 O.3          1 NAP500   0.0000
    10 C2B        -15.3070    28.5130     4.8910 C.3          1 NAP500   0.0000
    11 O2B        -14.5610    27.8700     3.8620 O.3          1 NAP500   0.0000
    12 C1B        -16.6450    28.9150     4.2960 C.3          1 NAP500   0.0000
    13 N9A        -17.1740    30.2120     4.8090 N.pl3        1 NAP500   0.0000
    14 C8A        -18.1890    30.8670     4.2140 C.2          1 NAP500   0.0000
    15 N7A        -18.4910    32.0190     4.8590 N.2          1 NAP500   0.0000
    16 C5A        -17.6530    32.1250     5.9030 C.ar         1 NAP500   0.0000
    17 C6A        -17.4430    33.1120     6.9890 C.ar         1 NAP500   0.0000
    18 N6A        -18.2090    34.2270     7.0750 N.pl3        1 NAP500   0.0000
    19 N1A        -16.4670    32.8660     7.8890 N.ar         1 NAP500   0.0000
    20 C2A        -15.7060    31.7620     7.8080 C.ar         1 NAP500   0.0000
    21 N3A        -15.8430    30.8270     6.8510 N.ar         1 NAP500   0.0000
    22 C4A        -16.7790    30.9390     5.8720 C.ar         1 NAP500   0.0000
    23 O3         -18.0470    24.8390     9.9620 O.3          1 NAP500   0.0000
    24 PN         -18.2170    24.6050    11.5480 P.3          1 NAP500   0.0000
    25 O1N        -17.8180    23.0530    11.7110 O.co2        1 NAP500   0.0000
    26 O2N        -17.1730    25.4360    12.2550 O.co2        1 NAP500  -1.0000
    27 O5D        -19.6760    24.7730    11.9040 O.co2        1 NAP500  -1.0000
    28 P2B        -13.4370    28.6580     3.0210 P.3          1 NAP500   0.0000
    29 O1X        -14.2380    29.4210     1.9930 O.co2        1 NAP500   0.0000
    30 O2X        -12.5770    27.5620     2.4370 O.co2        1 NAP500  -1.0000
    31 O3X        -12.7590    29.5400     4.0430 O.co2        1 NAP500  -1.0000
    32 H5B1       -17.8010    28.1592     7.3132 H            1 NAP500   0.0000
    33 H5B2       -18.8903    27.1256     6.6714 H            1 NAP500   0.0000
    34 H4B        -17.0533    26.1140     5.4184 H            1 NAP500   0.0000
    35 H3B        -15.5750    27.9752     6.8835 H            1 NAP500   0.0000
    36 H5         -14.3763    26.3053     5.0157 H            1 NAP500   0.0000
    37 H2B        -14.8174    29.3080     5.2493 H            1 NAP500   0.0000
    38 H1B        -16.5770    28.9470     3.2988 H            1 NAP500   0.0000
    39 H8A        -18.6624    30.5422     3.3952 H            1 NAP500   0.0000
    40 H6A1       -18.0552    34.8835     7.8134 H            1 NAP500   0.0000
    41 H6A2       -18.9279    34.3930     6.4000 H            1 NAP500   0.0000
    42 H2A        -14.9963    31.6275     8.4995 H            1 NAP500   0.0000
@<TRIPOS>BOND
     1    1    2      ar
     2    1    3      ar
     3    1    4       1
     4    1   23       1
     5    4    5       1
     6    5    6       1
     7    6    7       1
     8    6    8       1
     9    7   12       1
    10    8    9       1
    11    8   10       1
    12   10   11       1
    13   10   12       1
    14   11   28       1
    15   12   13       1
    16   13   14       1
    17   13   22       1
    18   14   15       2
    19   15   16       1
    20   16   17      ar
    21   16   22      ar
    22   17   18       1
    23   17   19      ar
    24   19   20      ar
    25   20   21      ar
    26   21   22      ar
    27   23   24       1
    28   24   25      ar
    29   24   26      ar
    30   24   27      ar
    31   28   29      ar
    32   28   30      ar
    33   28   31      ar
    34   20   42       1
    35    5   32       1
    36    5   33       1
    37    6   34       1
    38    8   35       1
    39    9   36       1
    40   10   37       1
    41   12   38       1
    42   14   39       1
    43   18   40       1
    44   18   41       1
@<TRIPOS>SUBSTRUCTURE
     1 NAP500      1 GROUP             4 B     NAP     0 **** NAP B 500
