@<TRIPOS>MOLECULE
4lu3_AZM_1_ligand
   18    18     1     0     0
SMALL
NO_CHARGES


@<TRIPOS>ATOM
     1 C1          67.8850    37.2270     2.7800 C.2          1 AZM302   0.0000
     2 C2          67.5850    37.0520     0.4730 C.2          1 AZM302   0.0000
     3 C3          66.1600    36.0660    -1.2050 C.2          1 AZM302   0.0000
     4 C4          65.9440    35.9590    -2.6780 C.3          1 AZM302   0.0000
     5 N1          69.2650    36.9960     5.1320 N.3          1 AZM302  -1.0000
     6 N2          68.6130    37.8030     0.7830 N.2          1 AZM302   0.0000
     7 N3          68.7810    37.8990     2.1400 N.2          1 AZM302   0.0000
     8 N4          67.2370    36.8430    -0.8250 N.am         1 AZM302   0.0000
     9 O1          67.3430    38.5080     4.8250 O.2          1 AZM302   0.0000
    10 O2          66.9630    36.1000     4.9280 O.2          1 AZM302   0.0000
    11 O3          65.4650    35.5260    -0.3740 O.2          1 AZM302   0.0000
    12 S1          67.8190    37.1840     4.5540 S.o2         1 AZM302   0.0000
    13 S2          66.7240    36.3870     1.8190 S.3          1 AZM302   0.0000
    14 H1          65.1478    35.3810    -2.8570 H            1 AZM302   0.0000
    15 H2          65.7869    36.8702    -3.0589 H            1 AZM302   0.0000
    16 H3          66.7526    35.5541    -3.1049 H            1 AZM302   0.0000
    17 H4          69.6832    37.8919     5.2816 H            1 AZM302   0.0000
    18 H5          67.7882    37.2732    -1.5399 H            1 AZM302   0.0000
@<TRIPOS>BOND
     1    1    7       2
     2    1   12       1
     3    1   13       1
     4    2    6       2
     5    2    8       1
     6    2   13       1
     7    3    4       1
     8    3    8      am
     9    3   11       2
    10    5   12       1
    11    6    7       1
    12    9   12       2
    13   10   12       2
    14    4   14       1
    15    4   15       1
    16    4   16       1
    17    8   18       1
    18    5   17       1
@<TRIPOS>SUBSTRUCTURE
     1 AZM302      1 GROUP             4 A     AZM     0 **** AZM A 302
