@<TRIPOS>MOLECULE
./coach420/1uam/ligand.pdb
 30 31 0 0 0
SMALL
GASTEIGER

@<TRIPOS>ATOM
      1  P        -25.3310   81.2280 -131.6600 P.3   401  PO4401      0.5592
      2  O1       -25.6140   80.6450 -130.2440 O.3   401  PO4401     -0.1130
      3  O2       -26.5800   81.5380 -132.4490 O.2   401  PO4401     -0.2201
      4  O3       -24.4340   80.1960 -132.3910 O.3   401  PO4401     -0.1130
      5  O4       -24.4970   82.5150 -131.4770 O.3   401  PO4401     -0.1130
      6  CA       -29.2590   69.1920 -134.1000 C.3   301  SAH301      0.1150
      7  CB       -28.7520   69.9800 -132.9330 C.3   301  SAH301      0.0234
      8  CG       -28.4330   71.4520 -133.0900 C.3   301  SAH301      0.0582
      9  SD       -27.8300   72.0300 -131.4440 S.3   301  SAH301     -0.1376
     10  C        -29.7590   67.7760 -133.6110 C.2   301  SAH301      0.3649
     11  O        -30.9330   67.6520 -133.2140 O.co2 301  SAH301     -0.2457
     12  OXT      -28.9730   66.7900 -133.8830 O.co2 301  SAH301     -0.2457
     13  C5'      -26.3850   72.9430 -131.8180 C.3   301  SAH301      0.0898
     14  C4'      -25.0960   72.0250 -131.7190 C.3   301  SAH301      0.1610
     15  O4'      -24.7380   71.8820 -130.3490 O.3   301  SAH301     -0.3323
     16  C3'      -25.0540   70.6840 -132.3680 C.3   301  SAH301      0.2144
     17  O3'      -24.6300   70.8290 -133.7130 O.3   301  SAH301     -0.2176
     18  C2'      -23.9700   69.9820 -131.4820 C.3   301  SAH301      0.2337
     19  O2'      -22.6490   70.2540 -131.9590 O.3   301  SAH301     -0.2155
     20  C1'      -24.2330   70.5210 -130.0610 C.3   301  SAH301      0.2409
     21  N9       -25.0350   69.8220 -129.2630 N.ar  301  SAH301     -0.2693
     22  C8       -26.2720   70.0930 -128.6960 C.ar  301  SAH301      0.1816
     23  N7       -26.6620   69.2850 -127.7660 N.ar  301  SAH301     -0.2193
     24  C5       -25.5760   68.3850 -127.6350 C.ar  301  SAH301      0.1518
     25  C6       -25.3850   67.2640 -126.7560 C.ar  301  SAH301      0.1919
     26  N6       -26.4030   66.6980 -126.1110 N.pl3 301  SAH301     -0.1054
     27  N1       -24.1840   66.6010 -126.9090 N.ar  301  SAH301     -0.2040
     28  C2       -23.1990   67.0110 -127.7600 C.ar  301  SAH301      0.2016
     29  N3       -23.3640   68.0620 -128.6300 N.ar  301  SAH301     -0.2048
     30  C4       -24.5650   68.7030 -128.5140 C.ar  301  SAH301      0.1692
@<TRIPOS>BOND
     1     1     3    2
     2     1     4    1
     3     1     5    1
     4     1     2    1
     5     6    10    1
     6     6     7    1
     7     7     8    1
     8     8     9    1
     9     9    13    1
    10    10    12   ar
    11    10    11   ar
    12    13    14    1
    13    14    16    1
    14    14    15    1
    15    15    20    1
    16    16    17    1
    17    16    18    1
    18    18    19    1
    19    18    20    1
    20    20    21    1
    21    21    22   ar
    22    21    30   ar
    23    22    23   ar
    24    23    24   ar
    25    24    30   ar
    26    24    25   ar
    27    25    27   ar
    28    25    26    1
    29    27    28   ar
    30    28    29   ar
    31    29    30   ar
