@<TRIPOS>MOLECULE
3pl9_LUT_1_ligand
   98    99     1     0     0
SMALL
NO_CHARGES


@<TRIPOS>ATOM
     1 C1          41.3100     5.5970     7.0800 C.3          1 LUT620   0.0000
     2 C2          42.5180     6.5530     7.1170 C.3          1 LUT620   0.0000
     3 C3          43.6890     6.2520     8.0570 C.3          1 LUT620   0.0000
     4 C4          43.5230     5.0370     8.9760 C.3          1 LUT620   0.0000
     5 C5          42.4910     4.0040     8.6690 C.2          1 LUT620   0.0000
     6 C6          41.4470     4.2010     7.8040 C.2          1 LUT620   0.0000
     7 C7          40.4340     3.1630     7.5060 C.2          1 LUT620   0.0000
     8 C8          39.3070     2.9010     8.1860 C.2          1 LUT620   0.0000
     9 C9          38.3180     1.8510     7.9140 C.2          1 LUT620   0.0000
    10 C10         37.1640     1.8850     8.6160 C.2          1 LUT620   0.0000
    11 C11         36.0230     1.0270     8.4380 C.2          1 LUT620   0.0000
    12 C12         34.8780     1.3120     9.0790 C.2          1 LUT620   0.0000
    13 C13         33.5690     0.6700     8.9710 C.2          1 LUT620   0.0000
    14 C14         32.5630     1.2170     9.6820 C.2          1 LUT620   0.0000
    15 C15         31.1900     0.8390     9.7080 C.2          1 LUT620   0.0000
    16 C16         40.9230     5.4150     5.5960 C.3          1 LUT620   0.0000
    17 C17         40.2000     6.4340     7.7290 C.3          1 LUT620   0.0000
    18 C18         42.8400     2.7940     9.4450 C.3          1 LUT620   0.0000
    19 C19         38.5960     0.8870     6.8010 C.3          1 LUT620   0.0000
    20 C20         33.4180    -0.5000     8.0450 C.3          1 LUT620   0.0000
    21 O3          44.0120     7.4010     8.8240 O.3          1 LUT620   0.0000
    22 C21         18.4230     0.1270    11.5950 C.3          1 LUT620   0.0000
    23 C22         17.0340    -0.5500    11.5250 C.3          1 LUT620   0.0000
    24 C23         16.5670    -1.2060    12.8280 C.3          1 LUT620   0.0000
    25 C24         17.7130    -1.9140    13.5770 C.2          1 LUT620   0.0000
    26 C25         19.0220    -1.7040    13.2910 C.2          1 LUT620   0.0000
    27 C26         19.5410    -0.7670    12.2070 C.3          1 LUT620   0.0000
    28 C27         20.7390     0.0210    12.6940 C.2          1 LUT620   0.0000
    29 C28         21.9690    -0.0140    12.1360 C.2          1 LUT620   0.0000
    30 C29         23.1240     0.8530    12.4650 C.2          1 LUT620   0.0000
    31 C30         24.2850     0.6600    11.8000 C.2          1 LUT620   0.0000
    32 C31         25.5290     1.3620    11.9940 C.2          1 LUT620   0.0000
    33 C32         26.6350     1.0570    11.2850 C.2          1 LUT620   0.0000
    34 C33         27.9920     1.6200    11.3760 C.2          1 LUT620   0.0000
    35 C34         28.9430     1.1100    10.5650 C.2          1 LUT620   0.0000
    36 C35         30.3330     1.4830    10.5050 C.2          1 LUT620   0.0000
    37 C36         18.2720     1.4480    12.4110 C.3          1 LUT620   0.0000
    38 C37         18.7930     0.5050    10.1530 C.3          1 LUT620   0.0000
    39 C38         19.9660    -2.4940    14.1220 C.3          1 LUT620   0.0000
    40 C39         22.9370     1.8850    13.5280 C.3          1 LUT620   0.0000
    41 C40         28.2420     2.6790    12.3840 C.3          1 LUT620   0.0000
    42 O23         15.4960    -2.1040    12.5640 O.3          1 LUT620   0.0000
    43 H1          42.1675     7.4551     7.3686 H            1 LUT620   0.0000
    44 H2          42.8907     6.5869     6.1897 H            1 LUT620   0.0000
    45 H3          44.4809     6.0646     7.4759 H            1 LUT620   0.0000
    46 H4          43.3145     5.3911     9.8877 H            1 LUT620   0.0000
    47 H5          44.4053     4.5667     8.9948 H            1 LUT620   0.0000
    48 H6          40.6100     2.5907     6.7051 H            1 LUT620   0.0000
    49 H7          39.1187     3.4911     8.9711 H            1 LUT620   0.0000
    50 H8          37.0960     2.5783     9.3335 H            1 LUT620   0.0000
    51 H9          36.0820     0.2258     7.8425 H            1 LUT620   0.0000
    52 H10         34.9280     2.0744     9.7242 H            1 LUT620   0.0000
    53 H11         32.8131     1.9884    10.2672 H            1 LUT620   0.0000
    54 H12         30.8671     0.0905     9.1288 H            1 LUT620   0.0000
    55 H13         40.1388     4.7980     5.5293 H            1 LUT620   0.0000
    56 H14         40.6832     6.3026     5.2028 H            1 LUT620   0.0000
    57 H15         41.6964     5.0265     5.0951 H            1 LUT620   0.0000
    58 H16         39.3542     5.9013     7.7575 H            1 LUT620   0.0000
    59 H17         40.4698     6.6811     8.6597 H            1 LUT620   0.0000
    60 H18         40.0525     7.2651     7.1929 H            1 LUT620   0.0000
    61 H19         42.1674     2.0764     9.2640 H            1 LUT620   0.0000
    62 H20         43.7485     2.4752     9.1747 H            1 LUT620   0.0000
    63 H21         42.8401     3.0124    10.4209 H            1 LUT620   0.0000
    64 H22         37.8431     0.2326     6.7309 H            1 LUT620   0.0000
    65 H23         38.6834     1.3881     5.9400 H            1 LUT620   0.0000
    66 H24         39.4471     0.3969     6.9893 H            1 LUT620   0.0000
    67 H25         32.4749    -0.8309     8.0770 H            1 LUT620   0.0000
    68 H26         33.6407    -0.2175     7.1119 H            1 LUT620   0.0000
    69 H27         34.0377    -1.2318     8.3286 H            1 LUT620   0.0000
    70 H28         43.7942     8.2240     8.2994 H            1 LUT620   0.0000
    71 H29         17.0682    -1.2557    10.8173 H            1 LUT620   0.0000
    72 H30         16.3624     0.1456    11.2699 H            1 LUT620   0.0000
    73 H31         16.2168    -0.4828    13.4232 H            1 LUT620   0.0000
    74 H32         17.4809    -2.5572    14.3067 H            1 LUT620   0.0000
    75 H33         19.8713    -1.3509    11.4654 H            1 LUT620   0.0000
    76 H34         20.6098     0.6127    13.4897 H            1 LUT620   0.0000
    77 H35         22.1156    -0.6999    11.4233 H            1 LUT620   0.0000
    78 H36         24.2803    -0.0489    11.0947 H            1 LUT620   0.0000
    79 H37         25.5731     2.0951    12.6727 H            1 LUT620   0.0000
    80 H38         26.5155     0.3427    10.5955 H            1 LUT620   0.0000
    81 H39         28.6492     0.3917     9.9343 H            1 LUT620   0.0000
    82 H40         30.6628     2.2386    11.0709 H            1 LUT620   0.0000
    83 H41         19.1589     1.9060    12.4709 H            1 LUT620   0.0000
    84 H42         17.6166     2.0492    11.9538 H            1 LUT620   0.0000
    85 H43         17.9437     1.2356    13.3314 H            1 LUT620   0.0000
    86 H44         19.6890     0.9490    10.1442 H            1 LUT620   0.0000
    87 H45         18.8246    -0.3206     9.5896 H            1 LUT620   0.0000
    88 H46         18.1063     1.1327     9.7863 H            1 LUT620   0.0000
    89 H47         20.9052    -2.2835    13.8509 H            1 LUT620   0.0000
    90 H48         19.8371    -2.2608    15.0859 H            1 LUT620   0.0000
    91 H49         19.7913    -3.4696    13.9888 H            1 LUT620   0.0000
    92 H50         23.7877     2.3965    13.6493 H            1 LUT620   0.0000
    93 H51         22.2063     2.5124    13.2587 H            1 LUT620   0.0000
    94 H52         22.6918     1.4372    14.3879 H            1 LUT620   0.0000
    95 H53         29.1984     2.9668    12.3350 H            1 LUT620   0.0000
    96 H54         27.6484     3.4622    12.1989 H            1 LUT620   0.0000
    97 H55         28.0477     2.3220    13.2977 H            1 LUT620   0.0000
    98 H56         15.8636    -3.0139    12.3717 H            1 LUT620   0.0000
@<TRIPOS>BOND
     1    1    2       1
     2    1    6       1
     3    1   16       1
     4    1   17       1
     5    2    3       1
     6    3    4       1
     7    3   21       1
     8    4    5       1
     9    5    6       2
    10    5   18       1
    11    6    7       1
    12    7    8       2
    13    8    9       1
    14    9   10       2
    15    9   19       1
    16   10   11       1
    17   11   12       2
    18   12   13       1
    19   13   14       2
    20   13   20       1
    21   14   15       1
    22   15   36       2
    23   22   23       1
    24   22   27       1
    25   22   37       1
    26   22   38       1
    27   23   24       1
    28   24   25       1
    29   24   42       1
    30   25   26       2
    31   26   27       1
    32   26   39       1
    33   27   28       1
    34   28   29       2
    35   29   30       1
    36   30   31       2
    37   30   40       1
    38   31   32       1
    39   32   33       2
    40   33   34       1
    41   34   35       2
    42   34   41       1
    43   35   36       1
    44    2   43       1
    45    2   44       1
    46    3   45       1
    47    4   46       1
    48    4   47       1
    49    7   48       1
    50    8   49       1
    51   10   50       1
    52   11   51       1
    53   12   52       1
    54   14   53       1
    55   15   54       1
    56   16   55       1
    57   16   56       1
    58   16   57       1
    59   17   58       1
    60   17   59       1
    61   17   60       1
    62   18   61       1
    63   18   62       1
    64   18   63       1
    65   19   64       1
    66   19   65       1
    67   19   66       1
    68   20   67       1
    69   20   68       1
    70   20   69       1
    71   21   70       1
    72   23   71       1
    73   23   72       1
    74   24   73       1
    75   25   74       1
    76   27   75       1
    77   28   76       1
    78   29   77       1
    79   31   78       1
    80   32   79       1
    81   33   80       1
    82   35   81       1
    83   36   82       1
    84   37   83       1
    85   37   84       1
    86   37   85       1
    87   38   86       1
    88   38   87       1
    89   38   88       1
    90   39   89       1
    91   39   90       1
    92   39   91       1
    93   40   92       1
    94   40   93       1
    95   40   94       1
    96   41   95       1
    97   41   96       1
    98   41   97       1
    99   42   98       1
@<TRIPOS>SUBSTRUCTURE
     1 LUT620      1 GROUP             4 A     LUT     0 **** LUT A 620
