@<TRIPOS>MOLECULE
2cmw_OLP_1_ligand
   43    45     1     0     0
SMALL
NO_CHARGES


@<TRIPOS>ATOM
     1 CAH         30.6960    48.0310     2.4420 C.ar         1 OLP1340   0.0000
     2 CAQ         31.8280    47.7950     1.6530 C.ar         1 OLP1340   0.0000
     3 CL          32.4770    49.0750     0.7280 Cl           1 OLP1340   0.0000
     4 CAF         32.3760    46.5200     1.6290 C.ar         1 OLP1340   0.0000
     5 CAE         31.8520    45.4770     2.3640 C.ar         1 OLP1340   0.0000
     6 CAG         30.7260    45.7220     3.1550 C.ar         1 OLP1340   0.0000
     7 CAR         30.1560    46.9860     3.2110 C.ar         1 OLP1340   0.0000
     8 N6          29.0050    47.1790     3.9830 N.pl3        1 OLP1340   0.0000
     9 C6          28.9020    46.8650     5.2790 C.ar         1 OLP1340   0.0000
    10 N1          29.9420    46.3840     5.9940 N.ar         1 OLP1340   0.0000
    11 C5          27.6760    47.0360     5.9720 C.ar         1 OLP1340   0.0000
    12 N7          26.4490    47.5120     5.6050 N.2          1 OLP1340   0.0000
    13 C8          25.6540    47.4550     6.6910 C.2          1 OLP1340   0.0000
    14 N9          26.3910    47.0060     7.7410 N.pl3        1 OLP1340   0.0000
    15 CAW         25.9230    46.7480     9.1260 C.3          1 OLP1340   0.0000
    16 CAB         24.8170    47.7440     9.5880 C.3          1 OLP1340   0.0000
    17 CAA         25.4850    45.2780     9.2670 C.3          1 OLP1340   0.0000
    18 C4          27.6210    46.7190     7.3290 C.ar         1 OLP1340   0.0000
    19 N3          28.7030    46.2410     8.0030 N.ar         1 OLP1340   0.0000
    20 C2          29.8630    46.0790     7.3040 C.ar         1 OLP1340   0.0000
    21 N2          30.9460    45.6050     7.9600 N.pl3        1 OLP1340   0.0000
    22 CAK         32.1980    45.3730     7.2170 C.3          1 OLP1340   0.0000
    23 CAJ         32.1690    43.9910     6.5860 C.3          1 OLP1340   0.0000
    24 OAC         32.6850    44.0230     5.2800 O.3          1 OLP1340   0.0000
    25 HAH         30.2742    48.9376     2.4583 H            1 OLP1340   0.0000
    26 HAF         33.1797    46.3515     1.0583 H            1 OLP1340   0.0000
    27 HAE         32.2675    44.5680     2.3317 H            1 OLP1340   0.0000
    28 HAG         30.3257    44.9764     3.6878 H            1 OLP1340   0.0000
    29 H5          28.2052    47.5788     3.5353 H            1 OLP1340   0.0000
    30 H6          24.6853    47.7014     6.7198 H            1 OLP1340   0.0000
    31 HAW         26.7084    46.8799     9.7308 H            1 OLP1340   0.0000
    32 HAB1        24.5405    47.5245    10.5236 H            1 OLP1340   0.0000
    33 HAB2        25.1746    48.6773     9.5563 H            1 OLP1340   0.0000
    34 HAB3        24.0262    47.6692     8.9805 H            1 OLP1340   0.0000
    35 HAA1        25.1713    45.1119    10.2019 H            1 OLP1340   0.0000
    36 HAA2        24.7402    45.0892     8.6270 H            1 OLP1340   0.0000
    37 HAA3        26.2592    44.6785     9.0637 H            1 OLP1340   0.0000
    38 H14         30.8982    45.4135     8.9403 H            1 OLP1340   0.0000
    39 HAK1        32.9738    45.4358     7.8448 H            1 OLP1340   0.0000
    40 HAK2        32.2924    46.0640     6.5003 H            1 OLP1340   0.0000
    41 HAJ1        31.2242    43.6648     6.5564 H            1 OLP1340   0.0000
    42 HAJ2        32.7199    43.3669     7.1401 H            1 OLP1340   0.0000
    43 HAC         32.2438    43.3140     4.7298 H            1 OLP1340   0.0000
@<TRIPOS>BOND
     1    1    2      ar
     2    1    7      ar
     3    2    3       1
     4    2    4      ar
     5    4    5      ar
     6    5    6      ar
     7    6    7      ar
     8    7    8       1
     9    8    9       1
    10    9   10      ar
    11    9   11      ar
    12   10   20      ar
    13   11   12       1
    14   11   18      ar
    15   12   13       2
    16   13   14       1
    17   14   15       1
    18   14   18       1
    19   15   16       1
    20   15   17       1
    21   18   19      ar
    22   19   20      ar
    23   20   21       1
    24   21   22       1
    25   22   23       1
    26   23   24       1
    27    1   25       1
    28    4   26       1
    29    5   27       1
    30    6   28       1
    31    8   29       1
    32   13   30       1
    33   15   31       1
    34   16   32       1
    35   16   33       1
    36   16   34       1
    37   17   35       1
    38   17   36       1
    39   17   37       1
    40   21   38       1
    41   22   39       1
    42   22   40       1
    43   23   41       1
    44   23   42       1
    45   24   43       1
@<TRIPOS>SUBSTRUCTURE
     1 OLP1340     1 GROUP             4 A     OLP     0 **** OLP A1340
