@<TRIPOS>MOLECULE
2iu8_UD1_1_ligand
   64    66     1     0     0
SMALL
NO_CHARGES


@<TRIPOS>ATOM
     1 C1'         37.3240   -85.7540   -24.5860 C.3          1 UD11348   0.0000
     2 C2'         37.8820   -86.4200   -25.8530 C.3          1 UD11348   0.0000
     3 C3'         36.7660   -87.0370   -26.6890 C.3          1 UD11348   0.0000
     4 C4'         35.8030   -87.9240   -25.9140 C.3          1 UD11348   0.0000
     5 C5'         35.3100   -87.2720   -24.6070 C.3          1 UD11348   0.0000
     6 C6'         34.4930   -88.2180   -23.6500 C.3          1 UD11348   0.0000
     7 C7'         39.5670   -85.5860   -27.5050 C.2          1 UD11348   0.0000
     8 C8'         40.2540   -86.9640   -27.4840 C.3          1 UD11348   0.0000
     9 N2'         38.4940   -85.3970   -26.7240 N.am         1 UD11348   0.0000
    10 O1'         36.7000   -84.5100   -25.0080 O.3          1 UD11348   0.0000
    11 O3'         37.3490   -87.8130   -27.7410 O.3          1 UD11348   0.0000
    12 O4'         34.7070   -88.1170   -26.7960 O.3          1 UD11348   0.0000
    13 O5'         36.4380   -86.6870   -23.8520 O.3          1 UD11348   0.0000
    14 O6'         33.8730   -89.3300   -24.3300 O.3          1 UD11348   0.0000
    15 O7'         40.0200   -84.6980   -28.2160 O.2          1 UD11348   0.0000
    16 N1          33.3990   -78.4150   -24.5400 N.pl3        1 UD11348   0.0000
    17 C2          32.7960   -77.2560   -23.9630 C.2          1 UD11348   0.0000
    18 N3          32.6620   -77.1630   -22.5640 N.pl3        1 UD11348   0.0000
    19 C4          33.1200   -78.2080   -21.7450 C.2          1 UD11348   0.0000
    20 C5          33.7000   -79.3430   -22.3080 C.2          1 UD11348   0.0000
    21 C6          33.8380   -79.4550   -23.6890 C.2          1 UD11348   0.0000
    22 O2          32.3870   -76.3240   -24.6540 O.2          1 UD11348   0.0000
    23 O4          33.0140   -78.1310   -20.5220 O.2          1 UD11348   0.0000
    24 C1B         33.5690   -78.5760   -26.0160 C.3          1 UD11348   0.0000
    25 C2B         35.0040   -79.0280   -26.3810 C.3          1 UD11348   0.0000
    26 O2'         35.7820   -77.9510   -26.9230 O.3          1 UD11348   0.0000
    27 C3B         34.8110   -80.1170   -27.4450 C.3          1 UD11348   0.0000
    28 C4B         33.2990   -80.2120   -27.6340 C.3          1 UD11348   0.0000
    29 O4B         32.7290   -79.6790   -26.4080 O.3          1 UD11348   0.0000
    30 O3B         35.4300   -79.7910   -28.6970 O.3          1 UD11348   0.0000
    31 C5B         32.9840   -81.7140   -27.7950 C.3          1 UD11348   0.0000
    32 O5B         33.3050   -82.4580   -26.5850 O.3          1 UD11348   0.0000
    33 PA          34.7550   -83.2110   -26.3320 P.3          1 UD11348   0.0000
    34 O1A         35.7170   -82.8100   -27.3850 O.co2        1 UD11348   0.0000
    35 O2A         34.4450   -84.6510   -26.1350 O.co2        1 UD11348  -1.0000
    36 O3A         35.2140   -82.5380   -24.9570 O.3          1 UD11348   0.0000
    37 PB          36.2050   -83.3380   -23.9930 P.3          1 UD11348   0.0000
    38 O1B         35.4010   -83.9510   -22.9070 O.co2        1 UD11348   0.0000
    39 O2B         37.3260   -82.4350   -23.6430 O.co2        1 UD11348  -1.0000
    40 H1'         38.0949   -85.5269   -23.9909 H            1 UD11348   0.0000
    41 H2'         38.5573   -87.1161   -25.6094 H            1 UD11348   0.0000
    42 H3'         36.2404   -86.2943   -27.1040 H            1 UD11348   0.0000
    43 H4'         36.2366   -88.8025   -25.7132 H            1 UD11348   0.0000
    44 H5'         34.7048   -86.5184   -24.8636 H            1 UD11348   0.0000
    45 H6'1        33.7766   -87.6784   -23.2078 H            1 UD11348   0.0000
    46 H6'2        35.1152   -88.5790   -22.9553 H            1 UD11348   0.0000
    47 H8'1        41.0332   -86.9576   -28.1107 H            1 UD11348   0.0000
    48 H8'2        40.5731   -87.1633   -26.5575 H            1 UD11348   0.0000
    49 H8'3        39.6018   -87.6660   -27.7702 H            1 UD11348   0.0000
    50 H11         38.0740   -84.4895   -26.7320 H            1 UD11348   0.0000
    51 H12         37.0544   -88.7648   -27.6557 H            1 UD11348   0.0000
    52 H13         34.8699   -88.9282   -27.3576 H            1 UD11348   0.0000
    53 H6'         34.0871   -89.2853   -25.3058 H            1 UD11348   0.0000
    54 H15         32.2412   -76.3537   -22.1542 H            1 UD11348   0.0000
    55 H16         34.0195   -80.0827   -21.7158 H            1 UD11348   0.0000
    56 H17         34.2506   -80.2770   -24.0816 H            1 UD11348   0.0000
    57 H1B         33.3182   -77.7392   -26.5027 H            1 UD11348   0.0000
    58 H2B         35.4591   -79.4100   -25.5767 H            1 UD11348   0.0000
    59 H20         36.0783   -78.1867   -27.8486 H            1 UD11348   0.0000
    60 H3B         35.1664   -80.9885   -27.1072 H            1 UD11348   0.0000
    61 H4B         32.9986   -79.6897   -28.4321 H            1 UD11348   0.0000
    62 H23         34.7345   -79.7612   -29.4149 H            1 UD11348   0.0000
    63 H5B1        33.5226   -82.0797   -28.5541 H            1 UD11348   0.0000
    64 H5B2        32.0102   -81.8224   -27.9947 H            1 UD11348   0.0000
@<TRIPOS>BOND
     1    1    2       1
     2    1   10       1
     3    1   13       1
     4    2    3       1
     5    2    9       1
     6    3    4       1
     7    3   11       1
     8    4    5       1
     9    4   12       1
    10    5    6       1
    11    5   13       1
    12    6   14       1
    13    7    8       1
    14    7    9      am
    15    7   15       2
    16   10   37       1
    17   16   17       1
    18   16   21       1
    19   16   24       1
    20   17   18       1
    21   17   22       2
    22   18   19       1
    23   19   20       1
    24   19   23       2
    25   20   21       2
    26   24   25       1
    27   24   29       1
    28   25   26       1
    29   25   27       1
    30   27   28       1
    31   27   30       1
    32   28   29       1
    33   28   31       1
    34   31   32       1
    35   32   33       1
    36   33   34      ar
    37   33   35      ar
    38   33   36       1
    39   36   37       1
    40   37   38      ar
    41   37   39      ar
    42    1   40       1
    43    2   41       1
    44    3   42       1
    45    4   43       1
    46    5   44       1
    47    6   45       1
    48    6   46       1
    49    8   47       1
    50    8   48       1
    51    8   49       1
    52    9   50       1
    53   11   51       1
    54   12   52       1
    55   14   53       1
    56   18   54       1
    57   20   55       1
    58   21   56       1
    59   24   57       1
    60   25   58       1
    61   26   59       1
    62   27   60       1
    63   28   61       1
    64   30   62       1
    65   31   63       1
    66   31   64       1
@<TRIPOS>SUBSTRUCTURE
     1 UD11348     1 GROUP             4 B     UD1     0 **** UD1 B1348
