@<TRIPOS>MOLECULE
2r9v_ATP_1_ligand
   43    45     1     0     0
SMALL
NO_CHARGES


@<TRIPOS>ATOM
     1 PG          60.9350     5.4250    83.3400 P.3          1 ATP506   0.0000
     2 O1G         62.1670     5.8160    82.5340 O.co2        1 ATP506   0.0000
     3 O2G         59.6290     5.9090    82.7190 O.co2        1 ATP506  -1.0000
     4 O3G         60.8760     3.9540    83.7650 O.co2        1 ATP506  -1.0000
     5 PB          60.5610     7.6770    85.1340 P.3          1 ATP506   0.0000
     6 O1B         61.5040     8.8440    84.7890 O.co2        1 ATP506   0.0000
     7 O2B         59.1310     7.7960    84.6680 O.co2        1 ATP506  -1.0000
     8 O3B         61.1690     6.2440    84.7350 O.3          1 ATP506   0.0000
     9 PA          59.2680     6.6500    87.5520 P.3          1 ATP506   0.0000
    10 O1A         59.1950     5.2780    86.9170 O.co2        1 ATP506   0.0000
    11 O2A         58.0350     7.4820    87.8660 O.co2        1 ATP506  -1.0000
    12 O3A         60.4280     7.5100    86.7420 O.3          1 ATP506   0.0000
    13 O5'         60.1420     6.5540    88.9280 O.3          1 ATP506   0.0000
    14 C5'         61.4810     6.0090    89.0000 C.3          1 ATP506   0.0000
    15 C4'         61.6000     5.2390    90.3170 C.3          1 ATP506   0.0000
    16 O4'         61.6640     6.1380    91.4430 O.3          1 ATP506   0.0000
    17 C3'         60.3740     4.3520    90.5730 C.3          1 ATP506   0.0000
    18 O3'         60.7770     3.1390    91.2070 O.3          1 ATP506   0.0000
    19 C2'         59.4830     5.1850    91.4920 C.3          1 ATP506   0.0000
    20 O2'         58.5870     4.3800    92.2810 O.3          1 ATP506   0.0000
    21 C1'         60.5190     5.9870    92.2970 C.3          1 ATP506   0.0000
    22 N9          60.0440     7.3360    92.7360 N.pl3        1 ATP506   0.0000
    23 C8          59.4500     8.2870    91.9840 C.2          1 ATP506   0.0000
    24 N7          59.1610     9.4010    92.7050 N.2          1 ATP506   0.0000
    25 C5          59.5820     9.1490    93.9650 C.ar         1 ATP506   0.0000
    26 C6          59.5860     9.8940    95.2510 C.ar         1 ATP506   0.0000
    27 N6          59.0570    11.1270    95.2690 N.pl3        1 ATP506   0.0000
    28 N1          60.1090     9.2850    96.3540 N.ar         1 ATP506   0.0000
    29 C2          60.6420     8.0330    96.3050 C.ar         1 ATP506   0.0000
    30 N3          60.6860     7.2920    95.1680 N.ar         1 ATP506   0.0000
    31 C4          60.1700     7.7900    93.9910 C.ar         1 ATP506   0.0000
    32 H5'1        62.1520     6.7501    88.9770 H            1 ATP506   0.0000
    33 H5'2        61.6394     5.3919    88.2292 H            1 ATP506   0.0000
    34 H4'         62.4230     4.6714    90.2973 H            1 ATP506   0.0000
    35 H3'         59.9011     4.1554    89.7141 H            1 ATP506   0.0000
    36 H5          59.9741     2.5659    91.3710 H            1 ATP506   0.0000
    37 H2'         58.9449     5.8178    90.9352 H            1 ATP506   0.0000
    38 H7          59.1173     3.7553    92.8542 H            1 ATP506   0.0000
    39 H1'         60.7833     5.4580    93.1034 H            1 ATP506   0.0000
    40 H9          59.2467     8.1833    91.0104 H            1 ATP506   0.0000
    41 H10         59.0449    11.6535    96.1191 H            1 ATP506   0.0000
    42 H11         58.6749    11.5194    94.4323 H            1 ATP506   0.0000
    43 H12         61.0182     7.6413    97.1447 H            1 ATP506   0.0000
@<TRIPOS>BOND
     1    1    2      ar
     2    1    3      ar
     3    1    4      ar
     4    1    8       1
     5    5    6      ar
     6    5    7      ar
     7    5    8       1
     8    5   12       1
     9    9   10      ar
    10    9   11      ar
    11    9   12       1
    12    9   13       1
    13   13   14       1
    14   14   15       1
    15   15   16       1
    16   15   17       1
    17   16   21       1
    18   17   18       1
    19   17   19       1
    20   19   20       1
    21   19   21       1
    22   21   22       1
    23   22   23       1
    24   22   31       1
    25   23   24       2
    26   24   25       1
    27   25   26      ar
    28   25   31      ar
    29   26   27       1
    30   26   28      ar
    31   28   29      ar
    32   29   30      ar
    33   30   31      ar
    34   29   43       1
    35   27   42       1
    36   27   41       1
    37   23   40       1
    38   14   32       1
    39   14   33       1
    40   15   34       1
    41   17   35       1
    42   18   36       1
    43   19   37       1
    44   20   38       1
    45   21   39       1
@<TRIPOS>SUBSTRUCTURE
     1 ATP506      1 GROUP             4 A     ATP     0 **** ATP A 506
