@<TRIPOS>MOLECULE
4wzy_ATP_1_ligand
   35    37     1     0     0
SMALL
NO_CHARGES


@<TRIPOS>ATOM
     1 PA         -57.6080    22.4200   112.6240 P.3          1 ATP502   0.0000
     2 O1A        -57.2550    23.7220   111.9450 O.co2        1 ATP502   0.0000
     3 O2A        -58.7580    21.5770   112.1220 O.co2        1 ATP502  -1.0000
     4 O3A        -56.2880    21.5040   112.6060 O.co2        1 ATP502  -1.0000
     5 O5'        -57.8560    22.7440   114.1850 O.3          1 ATP502   0.0000
     6 C5'        -58.5540    23.9440   114.5240 C.3          1 ATP502   0.0000
     7 C4'        -59.1090    23.9110   115.9480 C.3          1 ATP502   0.0000
     8 O4'        -60.1740    22.9630   116.0790 O.3          1 ATP502   0.0000
     9 C3'        -58.0470    23.5460   116.9730 C.3          1 ATP502   0.0000
    10 O3'        -57.8360    24.6740   117.8270 O.3          1 ATP502   0.0000
    11 C2'        -58.6170    22.3910   117.7740 C.3          1 ATP502   0.0000
    12 O2'        -58.5280    22.6740   119.1740 O.3          1 ATP502   0.0000
    13 C1'        -60.0690    22.2620   117.3280 C.3          1 ATP502   0.0000
    14 N9         -60.4500    20.8380   117.1270 N.pl3        1 ATP502   0.0000
    15 C8         -59.9980    20.0780   116.1150 C.2          1 ATP502   0.0000
    16 N7         -60.5090    18.8250   116.1710 N.2          1 ATP502   0.0000
    17 C5         -61.3170    18.7700   117.2430 C.ar         1 ATP502   0.0000
    18 C6         -62.1630    17.7330   117.8640 C.ar         1 ATP502   0.0000
    19 N6         -62.2230    16.4990   117.3080 N.pl3        1 ATP502   0.0000
    20 N1         -62.8570    18.0610   118.9820 N.ar         1 ATP502   0.0000
    21 C2         -62.7770    19.3000   119.5170 C.ar         1 ATP502   0.0000
    22 N3         -62.0240    20.2920   118.9970 N.ar         1 ATP502   0.0000
    23 C4         -61.2790    20.0970   117.8780 C.ar         1 ATP502   0.0000
    24 H5'1       -59.3141    24.0650   113.8855 H            1 ATP502   0.0000
    25 H5'2       -57.9240    24.7163   114.4424 H            1 ATP502   0.0000
    26 H4'        -59.4644    24.8189   116.1702 H            1 ATP502   0.0000
    27 H3'        -57.1956    23.2786   116.5217 H            1 ATP502   0.0000
    28 H5         -56.8820    24.9670   117.7627 H            1 ATP502   0.0000
    29 H2'        -58.1187    21.5500   117.5630 H            1 ATP502   0.0000
    30 H7         -58.1087    23.5721   119.3065 H            1 ATP502   0.0000
    31 H1'        -60.6717    22.6829   118.0059 H            1 ATP502   0.0000
    32 H9         -59.3647    20.3972   115.4100 H            1 ATP502   0.0000
    33 H10        -62.7941    15.7908   117.7231 H            1 ATP502   0.0000
    34 H11        -61.6961    16.2964   116.4826 H            1 ATP502   0.0000
    35 H12        -63.3052    19.4921   120.3441 H            1 ATP502   0.0000
@<TRIPOS>BOND
     1    1    2      ar
     2    1    3      ar
     3    1    4      ar
     4    1    5       1
     5    5    6       1
     6    6    7       1
     7    7    8       1
     8    7    9       1
     9    8   13       1
    10    9   10       1
    11    9   11       1
    12   11   12       1
    13   11   13       1
    14   13   14       1
    15   14   15       1
    16   14   23       1
    17   15   16       2
    18   16   17       1
    19   17   18      ar
    20   17   23      ar
    21   18   19       1
    22   18   20      ar
    23   20   21      ar
    24   21   22      ar
    25   22   23      ar
    26   21   35       1
    27   19   34       1
    28    6   24       1
    29    6   25       1
    30    7   26       1
    31    9   27       1
    32   10   28       1
    33   11   29       1
    34   12   30       1
    35   13   31       1
    36   15   32       1
    37   19   33       1
@<TRIPOS>SUBSTRUCTURE
     1 ATP502      1 GROUP             4 A     ATP     0 **** ATP A 502
