@<TRIPOS>MOLECULE
4o67_1SY_1_ligand
   69    75     1     0     0
SMALL
NO_CHARGES


@<TRIPOS>ATOM
     1 C2          14.7330    42.1400   134.7290 C.ar         1 1SY601   0.0000
     2 N01         12.2600    41.3070   137.3620 N.pl3        1 1SY601   0.0000
     3 C6          12.8480    41.7530   136.0770 C.ar         1 1SY601   0.0000
     4 N1          14.1850    41.7440   135.8930 N.ar         1 1SY601   0.0000
     5 N3          13.9770    42.5550   133.7070 N.ar         1 1SY601   0.0000
     6 C4          12.6110    42.6000   133.7990 C.ar         1 1SY601   0.0000
     7 C5          11.9860    42.1890   135.0110 C.ar         1 1SY601   0.0000
     8 N7          10.6230    42.3320   134.8330 N.2          1 1SY601   0.0000
     9 C8          10.3730    42.8080   133.5890 C.2          1 1SY601   0.0000
    10 N9          11.5670    42.9690   132.9890 N.pl3        1 1SY601   0.0000
    11 C1'         12.0040    43.4210   131.6970 C.3          1 1SY601   0.0000
    12 C2'         11.8590    42.3190   130.7440 C.3          1 1SY601   0.0000
    13 O2'         13.0630    42.2070   129.9730 O.3          1 1SY601   0.0000
    14 C3'         10.6680    42.6340   129.9310 C.3          1 1SY601   0.0000
    15 C4'         10.4240    44.0810   130.0690 C.3          1 1SY601   0.0000
    16 C16          8.9540    44.4260   130.1850 C.3          1 1SY601   0.0000
    17 O17          8.3610    43.5990   131.1380 O.3          1 1SY601   0.0000
    18 P18          6.7760    43.5220   131.3940 P.3          1 1SY601   0.0000
    19 O19          6.3460    44.1630   132.7220 O.3          1 1SY601   0.0000
    20 O20          6.2080    42.0040   131.2440 O.3          1 1SY601   0.0000
    21 C21          7.0180    41.0740   130.5540 C.3          1 1SY601   0.0000
    22 C22          6.4760    40.7930   129.1980 C.3          1 1SY601   0.0000
    23 O23          5.0760    40.7820   129.2800 O.3          1 1SY601   0.0000
    24 C24          6.9410    39.4440   128.8740 C.3          1 1SY601   0.0000
    25 C25          8.1960    39.4040   128.0510 C.3          1 1SY601   0.0000
    26 O26          8.8530    40.6460   128.1520 O.3          1 1SY601   0.0000
    27 P27         10.4510    40.7410   128.1410 P.3          1 1SY601   0.0000
    28 O28         10.9130    42.2700   128.5370 O.3          1 1SY601   0.0000
    29 O29         11.1850    39.7340   128.9600 O.3          1 1SY601   0.0000
    30 O30         10.8690    40.5010   126.7490 O.2          1 1SY601   0.0000
    31 O31          7.1830    38.7710   130.1300 O.3          1 1SY601   0.0000
    32 C32          7.0090    39.7290   131.1940 C.3          1 1SY601   0.0000
    33 N33          8.1210    39.5630   131.9500 N.pl3        1 1SY601   0.0000
    34 C34          9.3740    39.5640   131.5350 C.2          1 1SY601   0.0000
    35 N35         10.1890    39.3650   132.5860 N.2          1 1SY601   0.0000
    36 C36          8.0920    39.3610   133.2900 C.2          1 1SY601   0.0000
    37 C37          9.4110    39.2350   133.6970 C.2          1 1SY601   0.0000
    38 C38          9.6950    38.9870   135.1490 C.2          1 1SY601   0.0000
    39 N39          8.6120    38.8900   136.0630 N.pl3        1 1SY601   0.0000
    40 C40          7.2620    39.0210   135.6100 C.2          1 1SY601   0.0000
    41 N41          6.1650    38.9380   136.5150 N.pl3        1 1SY601   0.0000
    42 N42          6.9900    39.2620   134.2180 N.2          1 1SY601   0.0000
    43 O43         10.8690    38.8600   135.5530 O.2          1 1SY601   0.0000
    44 O44          6.1290    44.3130   130.3420 O.2          1 1SY601   0.0000
    45 O4'         11.1750    44.4900   131.2450 O.3          1 1SY601   0.0000
    46 H1          15.7276    42.1235   134.6263 H            1 1SY601   0.0000
    47 H2          11.2681    41.3175   137.4883 H            1 1SY601   0.0000
    48 H3          12.8551    40.9955   138.1028 H            1 1SY601   0.0000
    49 H4           9.4753    43.0020   133.1935 H            1 1SY601   0.0000
    50 H1'         12.9580    43.7178   131.7393 H            1 1SY601   0.0000
    51 H2'         11.7041    41.4666   131.2433 H            1 1SY601   0.0000
    52 H7          13.2230    43.0614   129.4787 H            1 1SY601   0.0000
    53 H3'          9.8799    42.1255   130.2779 H            1 1SY601   0.0000
    54 H4'         10.8011    44.5478   129.2690 H            1 1SY601   0.0000
    55 H10          8.5080    44.2898   129.3004 H            1 1SY601   0.0000
    56 H11          8.8560    45.3812   130.4641 H            1 1SY601   0.0000
    57 H12          6.6060    45.1286   132.7257 H            1 1SY601   0.0000
    58 H13          7.9549    41.4169   130.4862 H            1 1SY601   0.0000
    59 H14          6.7985    41.4623   128.5286 H            1 1SY601   0.0000
    60 H15          4.7798    41.4019   130.0066 H            1 1SY601   0.0000
    61 H16          6.2162    38.9612   128.3825 H            1 1SY601   0.0000
    62 H17          7.9640    39.2246   127.0950 H            1 1SY601   0.0000
    63 H18          8.7959    38.6793   128.3900 H            1 1SY601   0.0000
    64 H19         12.0446    40.1298   129.2831 H            1 1SY601   0.0000
    65 H20          6.1713    39.5653   131.7151 H            1 1SY601   0.0000
    66 H21          9.6704    39.6924   130.5886 H            1 1SY601   0.0000
    67 H22          5.2289    39.0325   136.1761 H            1 1SY601   0.0000
    68 H23          6.3310    38.7852   137.4892 H            1 1SY601   0.0000
    69 H24          8.7954    38.7285   137.0327 H            1 1SY601   0.0000
@<TRIPOS>BOND
     1    1    4      ar
     2    1    5      ar
     3    2    3       1
     4    3    4      ar
     5    3    7      ar
     6    5    6      ar
     7    6    7      ar
     8    6   10       1
     9    7    8       1
    10    8    9       2
    11    9   10       1
    12   10   11       1
    13   11   12       1
    14   11   45       1
    15   12   13       1
    16   12   14       1
    17   14   15       1
    18   14   28       1
    19   15   16       1
    20   15   45       1
    21   16   17       1
    22   17   18       1
    23   18   19       1
    24   18   20       1
    25   18   44       2
    26   20   21       1
    27   21   22       1
    28   21   32       1
    29   22   23       1
    30   22   24       1
    31   24   25       1
    32   24   31       1
    33   25   26       1
    34   26   27       1
    35   27   28       1
    36   27   29       1
    37   27   30       2
    38   31   32       1
    39   32   33       1
    40   33   34       1
    41   33   36       1
    42   34   35       2
    43   35   37       1
    44   36   37       2
    45   36   42       1
    46   37   38       1
    47   38   39       1
    48   38   43       2
    49   39   40       1
    50   40   41       1
    51   40   42       2
    52    1   46       1
    53    2   47       1
    54    2   48       1
    55    9   49       1
    56   11   50       1
    57   12   51       1
    58   13   52       1
    59   14   53       1
    60   15   54       1
    61   16   55       1
    62   16   56       1
    63   19   57       1
    64   21   58       1
    65   22   59       1
    66   23   60       1
    67   24   61       1
    68   25   62       1
    69   25   63       1
    70   29   64       1
    71   32   65       1
    72   34   66       1
    73   41   67       1
    74   41   68       1
    75   39   69       1
@<TRIPOS>SUBSTRUCTURE
     1 1SY601      1 GROUP             4 A     1SY     0 **** 1SY A 601
