@<TRIPOS>MOLECULE
1pvg_ANP_1_ligand
   43    45     1     0     0
SMALL
NO_CHARGES


@<TRIPOS>ATOM
     1 PG          25.9540    43.5680    37.0160 P.3          1 ANP901   0.0000
     2 O1G         25.9750    42.0760    37.2330 O.co2        1 ANP901   0.0000
     3 O2G         26.8350    44.2600    38.0270 O.co2        1 ANP901  -1.0000
     4 O3G         26.4450    43.8400    35.6200 O.co2        1 ANP901  -1.0000
     5 PB          23.8000    44.8620    38.5180 P.3          1 ANP901   0.0000
     6 O1B         24.6490    45.9880    39.0220 O.co2        1 ANP901   0.0000
     7 O2B         22.4460    45.3890    38.1450 O.co2        1 ANP901  -1.0000
     8 N3B         24.4090    44.1670    37.1280 N.3          1 ANP901  -1.0000
     9 PA          24.3500    43.7050    40.9440 P.3          1 ANP901   0.0000
    10 O1A         25.7620    44.2000    40.9680 O.co2        1 ANP901   0.0000
    11 O2A         24.3400    42.2690    41.4310 O.co2        1 ANP901  -1.0000
    12 O3A         23.7020    43.7370    39.5560 O.3          1 ANP901   0.0000
    13 O5'         23.4980    44.5390    41.8700 O.3          1 ANP901   0.0000
    14 C5'         22.1440    44.1230    42.0640 C.3          1 ANP901   0.0000
    15 C4'         21.2130    45.3180    42.1290 C.3          1 ANP901   0.0000
    16 O4'         21.3780    45.9430    43.3790 O.3          1 ANP901   0.0000
    17 C3'         21.5590    46.4110    41.1210 C.3          1 ANP901   0.0000
    18 O3'         20.7260    46.3200    39.9740 O.3          1 ANP901   0.0000
    19 C2'         21.3150    47.7190    41.8480 C.3          1 ANP901   0.0000
    20 O2'         20.0000    48.1310    41.5460 O.3          1 ANP901   0.0000
    21 C1'         21.3430    47.3630    43.3240 C.3          1 ANP901   0.0000
    22 N9          22.5340    47.9290    43.9910 N.pl3        1 ANP901   0.0000
    23 C8          23.7160    47.3080    44.1890 C.2          1 ANP901   0.0000
    24 N7          24.5740    48.1200    44.8680 N.2          1 ANP901   0.0000
    25 C5          23.9330    49.2710    45.0950 C.ar         1 ANP901   0.0000
    26 C6          24.2630    50.5460    45.7570 C.ar         1 ANP901   0.0000
    27 N6          25.5250    50.7410    46.3230 N.pl3        1 ANP901   0.0000
    28 N1          23.3110    51.5000    45.7960 N.ar         1 ANP901   0.0000
    29 C2          22.0890    51.3120    45.2410 C.ar         1 ANP901   0.0000
    30 N3          21.7260    50.1660    44.6250 N.ar         1 ANP901   0.0000
    31 C4          22.5910    49.1430    44.5280 C.ar         1 ANP901   0.0000
    32 H5'1        22.0787    43.6105    42.9202 H            1 ANP901   0.0000
    33 H5'2        21.8699    43.5358    41.3024 H            1 ANP901   0.0000
    34 H4'         20.2642    45.0250    42.0105 H            1 ANP901   0.0000
    35 H3'         22.5201    46.3404    40.8541 H            1 ANP901   0.0000
    36 H5          21.1561    45.7237    39.2962 H            1 ANP901   0.0000
    37 H2'         21.9934    48.4152    41.6133 H            1 ANP901   0.0000
    38 H7          19.3531    47.4334    41.8540 H            1 ANP901   0.0000
    39 H1'         20.5132    47.6991    43.7695 H            1 ANP901   0.0000
    40 H9          23.9318    46.3816    43.8805 H            1 ANP901   0.0000
    41 H10         25.7436    51.6080    46.7709 H            1 ANP901   0.0000
    42 H11         26.2099    50.0136    46.2803 H            1 ANP901   0.0000
    43 H12         21.4242    52.0574    45.2899 H            1 ANP901   0.0000
@<TRIPOS>BOND
     1    1    2      ar
     2    1    3      ar
     3    1    4      ar
     4    1    8       1
     5    5    6      ar
     6    5    7      ar
     7    5    8       1
     8    5   12       1
     9    9   10      ar
    10    9   11      ar
    11    9   12       1
    12    9   13       1
    13   13   14       1
    14   14   15       1
    15   15   16       1
    16   15   17       1
    17   16   21       1
    18   17   18       1
    19   17   19       1
    20   19   20       1
    21   19   21       1
    22   21   22       1
    23   22   23       1
    24   22   31       1
    25   23   24       2
    26   24   25       1
    27   25   26      ar
    28   25   31      ar
    29   26   27       1
    30   26   28      ar
    31   28   29      ar
    32   29   30      ar
    33   30   31      ar
    34   29   43       1
    35   27   42       1
    36   27   41       1
    37   21   39       1
    38   23   40       1
    39   14   32       1
    40   14   33       1
    41   15   34       1
    42   17   35       1
    43   18   36       1
    44   19   37       1
    45   20   38       1
@<TRIPOS>SUBSTRUCTURE
     1 ANP901      1 GROUP             4 A     ANP     0 **** ANP A 901
