@<TRIPOS>MOLECULE
2ab8_ACP_2_ligand
   45    47     1     0     0
SMALL
NO_CHARGES


@<TRIPOS>ATOM
     1 PG         -21.1020   -42.4540  -110.6310 P.3          1 ACP1002   0.0000
     2 O1G        -19.7540   -41.9030  -110.8950 O.co2        1 ACP1002   0.0000
     3 O2G        -22.1800   -41.9620  -111.7210 O.co2        1 ACP1002  -1.0000
     4 O3G        -21.6730   -41.9890  -109.1990 O.co2        1 ACP1002  -1.0000
     5 PB         -20.1510   -44.8820  -112.0140 P.3          1 ACP1002   0.0000
     6 O1B        -20.5490   -44.1310  -113.2260 O.co2        1 ACP1002   0.0000
     7 O2B        -18.7270   -44.8520  -111.6090 O.co2        1 ACP1002  -1.0000
     8 C3B        -21.1530   -44.2630  -110.6420 C.3          1 ACP1002   0.0000
     9 PA         -21.8880   -46.7990  -113.0790 P.3          1 ACP1002   0.0000
    10 O1A        -22.8370   -45.6640  -113.0240 O.co2        1 ACP1002   0.0000
    11 O2A        -21.3950   -47.2400  -114.4030 O.co2        1 ACP1002  -1.0000
    12 O3A        -20.6270   -46.4150  -112.1540 O.3          1 ACP1002   0.0000
    13 O5'        -22.5360   -48.0540  -112.3070 O.3          1 ACP1002   0.0000
    14 C5'        -21.8400   -49.3010  -112.2180 C.3          1 ACP1002   0.0000
    15 C4'        -22.7940   -50.4150  -111.7810 C.3          1 ACP1002   0.0000
    16 O4'        -23.4720   -50.0950  -110.5530 O.3          1 ACP1002   0.0000
    17 C3'        -23.9050   -50.6210  -112.8090 C.3          1 ACP1002   0.0000
    18 O3'        -23.4260   -51.4770  -113.8490 O.3          1 ACP1002   0.0000
    19 C2'        -24.8950   -51.3860  -111.9330 C.3          1 ACP1002   0.0000
    20 O2'        -24.4120   -52.7050  -111.6630 O.3          1 ACP1002   0.0000
    21 C1'        -24.8390   -50.5360  -110.6610 C.3          1 ACP1002   0.0000
    22 N9         -25.7090   -49.3440  -110.7970 N.pl3        1 ACP1002   0.0000
    23 C8         -25.3040   -48.0840  -110.9390 C.2          1 ACP1002   0.0000
    24 N7         -26.3630   -47.2800  -111.0030 N.2          1 ACP1002   0.0000
    25 C5         -27.4540   -48.0320  -110.9020 C.ar         1 ACP1002   0.0000
    26 C6         -28.8150   -47.7530  -110.9060 C.ar         1 ACP1002   0.0000
    27 N6         -29.2520   -46.5020  -111.0260 N.pl3        1 ACP1002   0.0000
    28 N1         -29.7200   -48.8140  -110.7790 N.ar         1 ACP1002   0.0000
    29 C2         -29.2330   -50.1220  -110.6510 C.ar         1 ACP1002   0.0000
    30 N3         -27.9310   -50.3480  -110.6510 N.ar         1 ACP1002   0.0000
    31 C4         -27.0390   -49.3520  -110.7720 C.ar         1 ACP1002   0.0000
    32 H3B1       -22.0982   -44.5697  -110.7539 H            1 ACP1002   0.0000
    33 H3B2       -20.7892   -44.6125  -109.7786 H            1 ACP1002   0.0000
    34 H5'1       -21.1011   -49.2189  -111.5492 H            1 ACP1002   0.0000
    35 H5'2       -21.4559   -49.5284  -113.1128 H            1 ACP1002   0.0000
    36 H4'        -22.2825   -51.2667  -111.6675 H            1 ACP1002   0.0000
    37 H3'        -24.2778   -49.7602  -113.1555 H            1 ACP1002   0.0000
    38 H7         -23.8851   -51.2478  -114.7073 H            1 ACP1002   0.0000
    39 H2'        -25.8119   -51.3995  -112.3318 H            1 ACP1002   0.0000
    40 H9         -24.2921   -53.1989  -112.5242 H            1 ACP1002   0.0000
    41 H1'        -25.1011   -51.0767  -109.8617 H            1 ACP1002   0.0000
    42 H11        -24.3505   -47.7870  -110.9898 H            1 ACP1002   0.0000
    43 H12        -30.2341   -46.3134  -111.0276 H            1 ACP1002   0.0000
    44 H13        -28.5984   -45.7504  -111.1146 H            1 ACP1002   0.0000
    45 H14        -29.8720   -50.8857  -110.5595 H            1 ACP1002   0.0000
@<TRIPOS>BOND
     1    1    2      ar
     2    1    3      ar
     3    1    4      ar
     4    1    8       1
     5    5    6      ar
     6    5    7      ar
     7    5    8       1
     8    5   12       1
     9    9   10      ar
    10    9   11      ar
    11    9   12       1
    12    9   13       1
    13   13   14       1
    14   14   15       1
    15   15   16       1
    16   15   17       1
    17   16   21       1
    18   17   18       1
    19   17   19       1
    20   19   20       1
    21   19   21       1
    22   21   22       1
    23   22   23       1
    24   22   31       1
    25   23   24       2
    26   24   25       1
    27   25   26      ar
    28   25   31      ar
    29   26   27       1
    30   26   28      ar
    31   28   29      ar
    32   29   30      ar
    33   30   31      ar
    34   29   45       1
    35   27   44       1
    36   27   43       1
    37    8   32       1
    38    8   33       1
    39   23   42       1
    40   14   34       1
    41   14   35       1
    42   15   36       1
    43   17   37       1
    44   18   38       1
    45   19   39       1
    46   20   40       1
    47   21   41       1
@<TRIPOS>SUBSTRUCTURE
     1 ACP1002     1 GROUP             4 A     ACP     0 **** ACP A1002
