@<TRIPOS>MOLECULE
3bnm_SPJ_1_ligand
   50    49     1     0     0
SMALL
NO_CHARGES


@<TRIPOS>ATOM
     1 N1B         97.5340    38.0200    55.6190 N.4          1 SPJ802   1.0000
     2 C1C         96.3980    37.1180    55.8540 C.3          1 SPJ802   0.0000
     3 C1A         96.6990    36.2440    57.0730 C.3          1 SPJ802   0.0000
     4 C1D         96.1700    36.2550    54.6100 C.3          1 SPJ802   0.0000
     5 C1E         94.9230    35.3800    54.7560 C.3          1 SPJ802   0.0000
     6 N1F         94.8010    34.4900    53.5920 N.4          1 SPJ802   1.0000
     7 C1G         95.9450    33.5670    53.5740 C.3          1 SPJ802   0.0000
     8 C1H         95.9210    32.7050    52.3100 C.3          1 SPJ802   0.0000
     9 C1I         97.1980    31.8660    52.2330 C.3          1 SPJ802   0.0000
    10 C1J         97.2550    31.0280    50.9540 C.3          1 SPJ802   0.0000
    11 N1K         98.5630    30.3600    50.8730 N.4          1 SPJ802   1.0000
    12 C1L         98.4140    28.9060    51.0270 C.3          1 SPJ802   0.0000
    13 C1M         98.0450    28.5560    52.4700 C.3          1 SPJ802   0.0000
    14 C1N         97.7900    27.0540    52.6150 C.3          1 SPJ802   0.0000
    15 C1P         99.0290    26.2420    52.2320 C.3          1 SPJ802   0.0000
    16 N1O         97.4170    26.7490    54.0040 N.4          1 SPJ802   1.0000
    17 H1B1        97.3441    38.5948    54.8230 H            1 SPJ802   0.0000
    18 H1B2        97.6719    38.5987    56.4228 H            1 SPJ802   0.0000
    19 H1C         95.5777    37.6612    56.0328 H            1 SPJ802   0.0000
    20 H1A1        95.9296    35.6271    57.2390 H            1 SPJ802   0.0000
    21 H1A2        97.5256    35.7076    56.9026 H            1 SPJ802   0.0000
    22 H1A3        96.8385    36.8260    57.8741 H            1 SPJ802   0.0000
    23 H1D1        96.9663    35.6658    54.4727 H            1 SPJ802   0.0000
    24 H1D2        96.0567    36.8525    53.8162 H            1 SPJ802   0.0000
    25 H1E1        94.1129    35.9634    54.8144 H            1 SPJ802   0.0000
    26 H1E2        94.9985    34.8303    55.5879 H            1 SPJ802   0.0000
    27 H1F1        94.7958    35.0340    52.7530 H            1 SPJ802   0.0000
    28 H1G1        95.9011    32.9734    54.3776 H            1 SPJ802   0.0000
    29 H1G2        96.7939    34.0951    53.5956 H            1 SPJ802   0.0000
    30 H1H1        95.8628    33.2963    51.5056 H            1 SPJ802   0.0000
    31 H1H2        95.1262    32.0988    52.3363 H            1 SPJ802   0.0000
    32 H1I1        97.2301    31.2532    53.0226 H            1 SPJ802   0.0000
    33 H1I2        97.9885    32.4781    52.2538 H            1 SPJ802   0.0000
    34 H1J1        97.1328    31.6220    50.1589 H            1 SPJ802   0.0000
    35 H1J2        96.5287    30.3408    50.9715 H            1 SPJ802   0.0000
    36 H1K1        99.1550    30.7082    51.5999 H            1 SPJ802   0.0000
    37 H1L1        99.2770    28.4597    50.7903 H            1 SPJ802   0.0000
    38 H1L2        97.6925    28.5823    50.4149 H            1 SPJ802   0.0000
    39 H1M1        97.2179    29.0556    52.7276 H            1 SPJ802   0.0000
    40 H1M2        98.7963    28.8211    53.0743 H            1 SPJ802   0.0000
    41 H1N         97.0347    26.7947    52.0130 H            1 SPJ802   0.0000
    42 H1P1        98.8337    25.2668    52.3361 H            1 SPJ802   0.0000
    43 H1P2        99.2723    26.4336    51.2812 H            1 SPJ802   0.0000
    44 H1P3        99.7908    26.4949    52.8284 H            1 SPJ802   0.0000
    45 H1O1        97.2508    25.7673    54.0966 H            1 SPJ802   0.0000
    46 H1O2        98.1598    27.0205    54.6159 H            1 SPJ802   0.0000
    47 H1B3        98.3590    37.4803    55.4513 H            1 SPJ802   0.0000
    48 H1F2        93.9502    33.9684    53.6564 H            1 SPJ802   0.0000
    49 H1K2        98.9768    30.5553    49.9838 H            1 SPJ802   0.0000
    50 H1O3        96.5866    27.2517    54.2442 H            1 SPJ802   0.0000
@<TRIPOS>BOND
     1    1    2       1
     2    2    3       1
     3    2    4       1
     4    4    5       1
     5    5    6       1
     6    6    7       1
     7    7    8       1
     8    8    9       1
     9    9   10       1
    10   10   11       1
    11   11   12       1
    12   12   13       1
    13   13   14       1
    14   14   15       1
    15   14   16       1
    16    1   17       1
    17    1   18       1
    18    2   19       1
    19    3   20       1
    20    3   21       1
    21    3   22       1
    22    4   23       1
    23    4   24       1
    24    5   25       1
    25    5   26       1
    26    6   27       1
    27    7   28       1
    28    7   29       1
    29    8   30       1
    30    8   31       1
    31    9   32       1
    32    9   33       1
    33   10   34       1
    34   10   35       1
    35   11   36       1
    36   12   37       1
    37   12   38       1
    38   13   39       1
    39   13   40       1
    40   14   41       1
    41   15   42       1
    42   15   43       1
    43   15   44       1
    44   16   45       1
    45   16   46       1
    46    1   47       1
    47    6   48       1
    48   11   49       1
    49   16   50       1
@<TRIPOS>SUBSTRUCTURE
     1 SPJ802      1 GROUP             4 A     SPJ     0 **** SPJ A 802
