@<TRIPOS>MOLECULE
4i9b_NAD_2_ligand
   39    41     1     0     0
SMALL
NO_CHARGES


@<TRIPOS>ATOM
     1 PA          -8.0110    10.5640   -25.6860 P.3          1 NAD601   0.0000
     2 O1A         -6.5530    10.8660   -25.6410 O.co2        1 NAD601   0.0000
     3 O2A         -8.6580    10.7880   -24.3480 O.co2        1 NAD601  -1.0000
     4 O5B         -8.6820    11.4140   -26.8250 O.3          1 NAD601   0.0000
     5 C5B        -10.0130    11.9780   -26.8210 C.3          1 NAD601   0.0000
     6 C4B         -9.9070    13.2560   -27.6170 C.3          1 NAD601   0.0000
     7 O4B         -8.9980    14.1600   -26.9410 O.3          1 NAD601   0.0000
     8 C3B         -9.3740    13.1130   -29.0510 C.3          1 NAD601   0.0000
     9 O3B        -10.1000    13.9550   -29.9450 O.3          1 NAD601   0.0000
    10 C2B         -7.9030    13.5280   -28.9000 C.3          1 NAD601   0.0000
    11 O2B         -7.2610    13.9600   -30.0890 O.3          1 NAD601   0.0000
    12 C1B         -8.0390    14.6400   -27.8650 C.3          1 NAD601   0.0000
    13 N9A         -6.8130    14.9690   -27.1370 N.pl3        1 NAD601   0.0000
    14 C8A         -5.7590    14.1350   -26.8610 C.2          1 NAD601   0.0000
    15 N7A         -4.7600    14.7200   -26.2450 N.2          1 NAD601   0.0000
    16 C5A         -5.1890    16.0300   -26.0960 C.ar         1 NAD601   0.0000
    17 C6A         -4.6090    17.1500   -25.4700 C.ar         1 NAD601   0.0000
    18 N6A         -3.4280    17.1190   -24.8480 N.pl3        1 NAD601   0.0000
    19 N1A         -5.3170    18.3040   -25.4650 N.ar         1 NAD601   0.0000
    20 C2A         -6.5210    18.3240   -26.0490 C.ar         1 NAD601   0.0000
    21 N3A         -7.1710    17.3290   -26.6640 N.ar         1 NAD601   0.0000
    22 C4A         -6.4510    16.2000   -26.6440 C.ar         1 NAD601   0.0000
    23 O3          -8.2570     9.0390   -26.1140 O.3          1 NAD601   0.0000
    24 PN          -7.2350     8.0620   -26.8730 P.3          1 NAD601   0.0000
    25 O1N         -8.0550     6.6940   -26.8280 O.co2        1 NAD601   0.0000
    26 O2N         -5.9940     7.9610   -26.0720 O.co2        1 NAD601  -1.0000
    27 O5D         -7.1240     8.4740   -28.2900 O.co2        1 NAD601  -1.0000
    28 H5B1       -10.3085    12.1716   -25.8855 H            1 NAD601   0.0000
    29 H5B2       -10.6608    11.3498   -27.2519 H            1 NAD601   0.0000
    30 H4B        -10.8105    13.6830   -27.6547 H            1 NAD601   0.0000
    31 H3B         -9.4349    12.1602   -29.3483 H            1 NAD601   0.0000
    32 H5         -11.0667    13.6995   -29.9325 H            1 NAD601   0.0000
    33 H2B         -7.3858    12.7698   -28.5030 H            1 NAD601   0.0000
    34 H7          -6.8419    13.1752   -30.5456 H            1 NAD601   0.0000
    35 H1B         -8.3911    15.4639   -28.3091 H            1 NAD601   0.0000
    36 H8A         -5.7531    13.1660   -27.1079 H            1 NAD601   0.0000
    37 H6A1        -3.0660    17.9475   -24.4207 H            1 NAD601   0.0000
    38 H6A2        -2.9054    16.2673   -24.8094 H            1 NAD601   0.0000
    39 H2A         -6.9999    19.2015   -26.0222 H            1 NAD601   0.0000
@<TRIPOS>BOND
     1    1    2      ar
     2    1    3      ar
     3    1    4       1
     4    1   23       1
     5    4    5       1
     6    5    6       1
     7    6    7       1
     8    6    8       1
     9    7   12       1
    10    8    9       1
    11    8   10       1
    12   10   11       1
    13   10   12       1
    14   12   13       1
    15   13   14       1
    16   13   22       1
    17   14   15       2
    18   15   16       1
    19   16   17      ar
    20   16   22      ar
    21   17   18       1
    22   17   19      ar
    23   19   20      ar
    24   20   21      ar
    25   21   22      ar
    26   23   24       1
    27   24   25      ar
    28   24   26      ar
    29   24   27      ar
    30   20   39       1
    31    5   28       1
    32    5   29       1
    33    6   30       1
    34    8   31       1
    35    9   32       1
    36   10   33       1
    37   11   34       1
    38   12   35       1
    39   14   36       1
    40   18   37       1
    41   18   38       1
@<TRIPOS>SUBSTRUCTURE
     1 NAD601      1 GROUP             4 B     NAD     0 **** NAD B 601
