@<TRIPOS>MOLECULE
4opt_FDA_1_ligand
   84    89     1     0     0
SMALL
NO_CHARGES


@<TRIPOS>ATOM
     1 PA         -12.1380    23.8410    -6.6170 P.3          1 FDA501   0.0000
     2 O1A        -10.7120    23.4960    -6.7750 O.co2        1 FDA501   0.0000
     3 O2A        -12.5910    25.0900    -7.3760 O.co2        1 FDA501  -1.0000
     4 O5B        -12.4490    23.9230    -5.0690 O.3          1 FDA501   0.0000
     5 C5B        -11.3760    23.8420    -4.1090 C.3          1 FDA501   0.0000
     6 C4B        -11.4750    25.0040    -3.1550 C.3          1 FDA501   0.0000
     7 O4B        -11.2200    24.5450    -1.8080 O.3          1 FDA501   0.0000
     8 C3B        -10.4910    26.1450    -3.4130 C.3          1 FDA501   0.0000
     9 O3B        -11.1000    27.4090    -3.1780 O.3          1 FDA501   0.0000
    10 C2B         -9.3660    25.8540    -2.4180 C.3          1 FDA501   0.0000
    11 O2B         -8.6900    27.0440    -2.0280 O.3          1 FDA501   0.0000
    12 C1B        -10.1540    25.2820    -1.2430 C.3          1 FDA501   0.0000
    13 N9A         -9.3870    24.3970    -0.3740 N.pl3        1 FDA501   0.0000
    14 C8A         -8.6540    23.2990    -0.7390 C.2          1 FDA501   0.0000
    15 N7A         -8.0640    22.6830     0.2590 N.2          1 FDA501   0.0000
    16 C5A         -8.4410    23.4380     1.3640 C.ar         1 FDA501   0.0000
    17 C6A         -8.1450    23.3110     2.7380 C.ar         1 FDA501   0.0000
    18 N6A         -7.3800    22.3450     3.2500 N.pl3        1 FDA501   0.0000
    19 N1A         -8.6760    24.2290     3.5780 N.ar         1 FDA501   0.0000
    20 C2A         -9.4440    25.1980     3.0720 C.ar         1 FDA501   0.0000
    21 N3A         -9.7910    25.4140     1.8000 N.ar         1 FDA501   0.0000
    22 C4A         -9.2500    24.4900     0.9920 C.ar         1 FDA501   0.0000
    23 N1         -15.5120    22.4380   -15.6800 N.2          1 FDA501   0.0000
    24 C2         -16.6100    22.7740   -16.4330 C.2          1 FDA501   0.0000
    25 O2         -17.7530    22.6130   -16.0140 O.2          1 FDA501   0.0000
    26 N3         -16.3630    23.2980   -17.6750 N.pl3        1 FDA501   0.0000
    27 C4         -15.1600    23.7850   -18.1440 C.2          1 FDA501   0.0000
    28 O4         -15.1280    24.5600   -19.0980 O.2          1 FDA501   0.0000
    29 C4X        -14.0620    23.2820   -17.4040 C.2          1 FDA501   0.0000
    30 N5         -12.7950    23.4490   -17.8850 N.2          1 FDA501   0.0000
    31 C5X        -11.6960    23.2020   -17.0780 C.ar         1 FDA501   0.0000
    32 C6         -10.4140    23.5880   -17.4550 C.ar         1 FDA501   0.0000
    33 C7          -9.3130    23.3510   -16.6410 C.ar         1 FDA501   0.0000
    34 C7M         -7.9500    23.8150   -17.0820 C.3          1 FDA501   0.0000
    35 C8          -9.4930    22.6950   -15.4130 C.ar         1 FDA501   0.0000
    36 C8M         -8.3290    22.4290   -14.4960 C.3          1 FDA501   0.0000
    37 C9         -10.7690    22.2930   -15.0380 C.ar         1 FDA501   0.0000
    38 C9A        -11.8680    22.5440   -15.8520 C.ar         1 FDA501   0.0000
    39 N10        -13.1710    22.1530   -15.4880 N.pl3        1 FDA501   0.0000
    40 C10        -14.2540    22.6250   -16.1990 C.2          1 FDA501   0.0000
    41 C1'        -13.4210    21.4520   -14.2110 C.3          1 FDA501   0.0000
    42 C2'        -13.7880    22.4410   -13.1070 C.3          1 FDA501   0.0000
    43 O2'        -12.8400    23.5090   -13.0780 O.3          1 FDA501   0.0000
    44 C3'        -13.8000    21.7260   -11.7550 C.3          1 FDA501   0.0000
    45 O3'        -14.2500    20.3900   -11.9460 O.3          1 FDA501   0.0000
    46 C4'        -14.6900    22.4040   -10.7120 C.3          1 FDA501   0.0000
    47 O4'        -14.1990    23.7190   -10.4480 O.3          1 FDA501   0.0000
    48 C5'        -14.7920    21.5970    -9.4380 C.3          1 FDA501   0.0000
    49 O5'        -15.2060    22.4560    -8.3560 O.3          1 FDA501   0.0000
    50 P          -14.5790    22.2890    -6.9130 P.3          1 FDA501   0.0000
    51 O1P        -15.2030    23.2940    -6.0200 O.co2        1 FDA501   0.0000
    52 O2P        -14.6330    20.8460    -6.3990 O.co2        1 FDA501  -1.0000
    53 O3P        -13.0370    22.6440    -7.1490 O.3          1 FDA501   0.0000
    54 H5B1       -10.4976    23.8748    -4.5858 H            1 FDA501   0.0000
    55 H5B2       -11.4470    22.9843    -3.5997 H            1 FDA501   0.0000
    56 H4B        -12.4046    25.3704    -3.1955 H            1 FDA501   0.0000
    57 H3B        -10.1446    26.0973    -4.3499 H            1 FDA501   0.0000
    58 H5         -11.8027    27.3145    -2.4728 H            1 FDA501   0.0000
    59 H2B         -8.7256    25.1794    -2.7851 H            1 FDA501   0.0000
    60 H7          -9.3393    27.6698    -1.5958 H            1 FDA501   0.0000
    61 H1B        -10.5263    26.0344    -0.6996 H            1 FDA501   0.0000
    62 H8A         -8.5748    22.9919    -1.6874 H            1 FDA501   0.0000
    63 H6A1        -7.2090    22.3117     4.2347 H            1 FDA501   0.0000
    64 H6A2        -6.9777    21.6544     2.6490 H            1 FDA501   0.0000
    65 H2A         -9.8089    25.8507     3.7359 H            1 FDA501   0.0000
    66 H13        -17.1362    23.3309   -18.3083 H            1 FDA501   0.0000
    67 H14        -10.2814    24.0473   -18.3333 H            1 FDA501   0.0000
    68 H7M1        -7.2733    23.5682   -16.3883 H            1 FDA501   0.0000
    69 H7M2        -7.7133    23.3771   -17.9493 H            1 FDA501   0.0000
    70 H7M3        -7.9583    24.8078   -17.2013 H            1 FDA501   0.0000
    71 H8M1        -8.6518    21.9561   -13.6762 H            1 FDA501   0.0000
    72 H8M2        -7.6570    21.8579   -14.9674 H            1 FDA501   0.0000
    73 H8M3        -7.9050    23.2963   -14.2353 H            1 FDA501   0.0000
    74 H21        -10.8991    21.8156   -14.1690 H            1 FDA501   0.0000
    75 H1'1       -12.5955    20.9549   -13.9437 H            1 FDA501   0.0000
    76 H1'2       -14.1739    20.8056   -14.3347 H            1 FDA501   0.0000
    77 H2'        -14.6977    22.8141   -13.2893 H            1 FDA501   0.0000
    78 H25        -12.4789    23.6593   -13.9983 H            1 FDA501   0.0000
    79 H3'        -12.8644    21.6980   -11.4031 H            1 FDA501   0.0000
    80 H27        -13.8294    19.7954   -11.2608 H            1 FDA501   0.0000
    81 H4'        -15.6085    22.4890   -11.0981 H            1 FDA501   0.0000
    82 H29        -14.4149    23.9724    -9.5050 H            1 FDA501   0.0000
    83 H5'1       -13.9004    21.1978    -9.2241 H            1 FDA501   0.0000
    84 H5'2       -15.4639    20.8664    -9.5592 H            1 FDA501   0.0000
@<TRIPOS>BOND
     1    1    2      ar
     2    1    3      ar
     3    1    4       1
     4    1   53       1
     5    4    5       1
     6    5    6       1
     7    6    7       1
     8    6    8       1
     9    7   12       1
    10    8    9       1
    11    8   10       1
    12   10   11       1
    13   10   12       1
    14   12   13       1
    15   13   14       1
    16   13   22       1
    17   14   15       2
    18   15   16       1
    19   16   17      ar
    20   16   22      ar
    21   17   18       1
    22   17   19      ar
    23   19   20      ar
    24   20   21      ar
    25   21   22      ar
    26   23   24       1
    27   23   40       2
    28   24   25       2
    29   24   26       1
    30   26   27       1
    31   27   28       2
    32   27   29       1
    33   29   30       2
    34   29   40       1
    35   30   31       1
    36   31   32      ar
    37   31   38      ar
    38   32   33      ar
    39   33   34       1
    40   33   35      ar
    41   35   36       1
    42   35   37      ar
    43   37   38      ar
    44   38   39       1
    45   39   40       1
    46   39   41       1
    47   41   42       1
    48   42   43       1
    49   42   44       1
    50   44   45       1
    51   44   46       1
    52   46   47       1
    53   46   48       1
    54   48   49       1
    55   49   50       1
    56   50   51      ar
    57   50   52      ar
    58   50   53       1
    59   48   84       1
    60    5   54       1
    61    5   55       1
    62    6   56       1
    63    8   57       1
    64    9   58       1
    65   10   59       1
    66   11   60       1
    67   12   61       1
    68   14   62       1
    69   18   63       1
    70   18   64       1
    71   20   65       1
    72   26   66       1
    73   32   67       1
    74   34   68       1
    75   34   69       1
    76   34   70       1
    77   36   71       1
    78   36   72       1
    79   36   73       1
    80   37   74       1
    81   41   75       1
    82   41   76       1
    83   42   77       1
    84   43   78       1
    85   44   79       1
    86   45   80       1
    87   46   81       1
    88   47   82       1
    89   48   83       1
@<TRIPOS>SUBSTRUCTURE
     1 FDA501      1 GROUP             4 A     FDA     0 **** FDA A 501
