@<TRIPOS>MOLECULE
3jqr_FAD_1_ligand
   84    89     1     0     0
SMALL
NO_CHARGES


@<TRIPOS>ATOM
     1 PA         -15.8290     7.3470    24.2020 P.3          1 FAD415   0.0000
     2 O1A        -14.9950     7.5490    22.9970 O.co2        1 FAD415   0.0000
     3 O2A        -15.9540     8.4420    25.1860 O.co2        1 FAD415  -1.0000
     4 O5B        -15.3100     6.0300    24.9590 O.3          1 FAD415   0.0000
     5 C5B        -15.3520     4.7620    24.2980 C.3          1 FAD415   0.0000
     6 C4B        -14.0680     3.9620    24.5470 C.3          1 FAD415   0.0000
     7 O4B        -12.9080     4.7060    24.0800 O.3          1 FAD415   0.0000
     8 C3B        -13.8730     3.7940    26.0510 C.3          1 FAD415   0.0000
     9 O3B        -14.5300     2.5980    26.4830 O.3          1 FAD415   0.0000
    10 C2B        -12.3660     3.6200    26.1560 C.3          1 FAD415   0.0000
    11 O2B        -12.0170     2.2670    25.8420 O.3          1 FAD415   0.0000
    12 C1B        -11.8320     4.5500    25.0590 C.3          1 FAD415   0.0000
    13 N9A        -11.4690     5.8960    25.5940 N.pl3        1 FAD415   0.0000
    14 C8A        -12.2740     6.7140    26.2760 C.2          1 FAD415   0.0000
    15 N7A        -11.6120     7.8300    26.5860 N.2          1 FAD415   0.0000
    16 C5A        -10.3810     7.7230    26.0980 C.ar         1 FAD415   0.0000
    17 C6A         -9.2680     8.5530    26.1100 C.ar         1 FAD415   0.0000
    18 N6A         -9.3190     9.7410    26.7070 N.pl3        1 FAD415   0.0000
    19 N1A         -8.1410     8.1400    25.5100 N.ar         1 FAD415   0.0000
    20 C2A         -8.0860     6.9580    24.9140 C.ar         1 FAD415   0.0000
    21 N3A         -9.1320     6.1440    24.8880 N.ar         1 FAD415   0.0000
    22 C4A        -10.2880     6.4970    25.4680 C.ar         1 FAD415   0.0000
    23 N1         -20.4090     3.2950    16.4210 N.2          1 FAD415   0.0000
    24 C2         -21.7940     3.1230    16.2820 C.2          1 FAD415   0.0000
    25 O2         -22.5270     3.0590    17.2710 O.2          1 FAD415   0.0000
    26 N3         -22.3440     3.0290    15.0040 N.pl3        1 FAD415   0.0000
    27 C4         -21.5200     3.1040    13.8760 C.2          1 FAD415   0.0000
    28 O4         -22.0140     3.0200    12.7540 O.2          1 FAD415   0.0000
    29 C4X        -20.1470     3.2680    14.0120 C.2          1 FAD415   0.0000
    30 N5         -19.3220     3.3380    12.8760 N.2          1 FAD415   0.0000
    31 C5X        -17.9300     3.4570    13.0160 C.ar         1 FAD415   0.0000
    32 C6         -17.0960     3.4740    11.9010 C.ar         1 FAD415   0.0000
    33 C7         -15.7180     3.5970    12.0650 C.ar         1 FAD415   0.0000
    34 C7M        -14.8000     3.6120    10.8420 C.3          1 FAD415   0.0000
    35 C8         -15.1750     3.7070    13.3430 C.ar         1 FAD415   0.0000
    36 C8M        -13.6640     3.8440    13.5330 C.3          1 FAD415   0.0000
    37 C9         -16.0070     3.6890    14.4540 C.ar         1 FAD415   0.0000
    38 C9A        -17.3800     3.5630    14.2860 C.ar         1 FAD415   0.0000
    39 N10        -18.2100     3.5430    15.4060 N.pl3        1 FAD415   0.0000
    40 C10        -19.5920     3.3640    15.2780 C.2          1 FAD415   0.0000
    41 C1'        -17.6310     3.7760    16.7330 C.3          1 FAD415   0.0000
    42 C2'        -18.1200     5.1330    17.2160 C.3          1 FAD415   0.0000
    43 O2'        -17.1270     6.1100    16.9040 O.3          1 FAD415   0.0000
    44 C3'        -18.3820     5.1020    18.7180 C.3          1 FAD415   0.0000
    45 O3'        -19.5650     5.8460    19.0350 O.3          1 FAD415   0.0000
    46 C4'        -17.1980     5.7140    19.4350 C.3          1 FAD415   0.0000
    47 O4'        -16.0290     4.9300    19.1660 O.3          1 FAD415   0.0000
    48 C5'        -17.4710     5.8120    20.9360 C.3          1 FAD415   0.0000
    49 O5'        -17.4580     7.1850    21.3190 O.3          1 FAD415   0.0000
    50 P          -18.1680     7.6780    22.6700 P.3          1 FAD415   0.0000
    51 O1P        -17.9220     9.1300    22.8120 O.co2        1 FAD415   0.0000
    52 O2P        -19.5490     7.1700    22.7300 O.co2        1 FAD415  -1.0000
    53 O3P        -17.3060     6.8870    23.7840 O.3          1 FAD415   0.0000
    54 H5B1       -15.4580     4.9104    23.3148 H            1 FAD415   0.0000
    55 H5B2       -16.1327     4.2407    24.6425 H            1 FAD415   0.0000
    56 H4B        -14.1173     3.0701    24.0975 H            1 FAD415   0.0000
    57 H3B        -14.1902     4.5954    26.5581 H            1 FAD415   0.0000
    58 H5         -15.4727     2.8100    26.7408 H            1 FAD415   0.0000
    59 H2B        -12.0281     3.8859    27.0588 H            1 FAD415   0.0000
    60 H7         -11.0259     2.1537    25.9114 H            1 FAD415   0.0000
    61 H1B        -11.0348     4.1339    24.6216 H            1 FAD415   0.0000
    62 H8A        -13.2250     6.5204    26.5169 H            1 FAD415   0.0000
    63 H6A1        -8.5133    10.3333    26.7115 H            1 FAD415   0.0000
    64 H6A2       -10.1630    10.0416    27.1512 H            1 FAD415   0.0000
    65 H2A         -7.2349     6.6730    24.4731 H            1 FAD415   0.0000
    66 H13        -23.3304     2.9076    14.8935 H            1 FAD415   0.0000
    67 H14        -17.4859     3.3980    10.9833 H            1 FAD415   0.0000
    68 H7M1       -13.8499     3.7061    11.1395 H            1 FAD415   0.0000
    69 H7M2       -14.9072     2.7572    10.3342 H            1 FAD415   0.0000
    70 H7M3       -15.0426     4.3825    10.2526 H            1 FAD415   0.0000
    71 H8M1       -13.4554     3.9106    14.5087 H            1 FAD415   0.0000
    72 H8M2       -13.2056     3.0429    13.1481 H            1 FAD415   0.0000
    73 H8M3       -13.3427     4.6681    13.0664 H            1 FAD415   0.0000
    74 H21        -15.6191     3.7665    15.3724 H            1 FAD415   0.0000
    75 H1'1       -16.6327     3.7742    16.6746 H            1 FAD415   0.0000
    76 H1'2       -17.9292     3.0611    17.3655 H            1 FAD415   0.0000
    77 H2'        -18.9684     5.3642    16.7399 H            1 FAD415   0.0000
    78 H25        -17.3051     6.4879    15.9954 H            1 FAD415   0.0000
    79 H3'        -18.4964     4.1541    19.0154 H            1 FAD415   0.0000
    80 H27        -20.3592     5.2392    19.0021 H            1 FAD415   0.0000
    81 H4'        -17.0516     6.6363    19.0774 H            1 FAD415   0.0000
    82 H29        -15.8555     4.9173    18.1812 H            1 FAD415   0.0000
    83 H5'1       -16.7629     5.3165    21.4390 H            1 FAD415   0.0000
    84 H5'2       -18.3655     5.4147    21.1411 H            1 FAD415   0.0000
@<TRIPOS>BOND
     1    1    2      ar
     2    1    3      ar
     3    1    4       1
     4    1   53       1
     5    4    5       1
     6    5    6       1
     7    6    7       1
     8    6    8       1
     9    7   12       1
    10    8    9       1
    11    8   10       1
    12   10   11       1
    13   10   12       1
    14   12   13       1
    15   13   14       1
    16   13   22       1
    17   14   15       2
    18   15   16       1
    19   16   17      ar
    20   16   22      ar
    21   17   18       1
    22   17   19      ar
    23   19   20      ar
    24   20   21      ar
    25   21   22      ar
    26   23   24       1
    27   23   40       2
    28   24   25       2
    29   24   26       1
    30   26   27       1
    31   27   28       2
    32   27   29       1
    33   29   30       2
    34   29   40       1
    35   30   31       1
    36   31   32      ar
    37   31   38      ar
    38   32   33      ar
    39   33   34       1
    40   33   35      ar
    41   35   36       1
    42   35   37      ar
    43   37   38      ar
    44   38   39       1
    45   39   40       1
    46   39   41       1
    47   41   42       1
    48   42   43       1
    49   42   44       1
    50   44   45       1
    51   44   46       1
    52   46   47       1
    53   46   48       1
    54   48   49       1
    55   49   50       1
    56   50   51      ar
    57   50   52      ar
    58   50   53       1
    59   48   84       1
    60    5   54       1
    61    5   55       1
    62    6   56       1
    63    8   57       1
    64    9   58       1
    65   10   59       1
    66   11   60       1
    67   12   61       1
    68   14   62       1
    69   18   63       1
    70   18   64       1
    71   20   65       1
    72   26   66       1
    73   32   67       1
    74   34   68       1
    75   34   69       1
    76   34   70       1
    77   36   71       1
    78   36   72       1
    79   36   73       1
    80   37   74       1
    81   41   75       1
    82   41   76       1
    83   42   77       1
    84   43   78       1
    85   44   79       1
    86   45   80       1
    87   46   81       1
    88   47   82       1
    89   48   83       1
@<TRIPOS>SUBSTRUCTURE
     1 FAD415      1 GROUP             4 A     FAD     0 **** FAD A 415
