@<TRIPOS>MOLECULE
3s1s_SAH_1_ligand
   45    47     1     0     0
SMALL
NO_CHARGES


@<TRIPOS>ATOM
     1 N           78.6840    86.1920    14.6410 N.3          1 SAH900   0.0000
     2 CA          79.0630    85.2490    13.5940 C.3          1 SAH900   0.0000
     3 CB          78.1610    85.5070    12.3940 C.3          1 SAH900   0.0000
     4 CG          76.9950    84.5380    12.2730 C.3          1 SAH900   0.0000
     5 SD          77.0370    84.1060    10.5690 S.3          1 SAH900   0.0000
     6 C           80.5020    85.3840    13.1420 C.2          1 SAH900   0.0000
     7 O           80.8720    84.8250    12.1060 O.co2        1 SAH900   0.0000
     8 OXT         81.3520    86.0170    13.7550 O.co2        1 SAH900  -1.0000
     9 C5'         75.3370    84.1890    10.1120 C.3          1 SAH900   0.0000
    10 C4'         75.0970    85.5570     9.4910 C.3          1 SAH900   0.0000
    11 O4'         74.6040    85.4380     8.1630 O.3          1 SAH900   0.0000
    12 C3'         74.0570    86.3750    10.2430 C.3          1 SAH900   0.0000
    13 O3'         74.7280    87.5170    10.7740 O.3          1 SAH900   0.0000
    14 C2'         73.0590    86.7940     9.1790 C.3          1 SAH900   0.0000
    15 O2'         72.5870    88.1410     9.3150 O.3          1 SAH900   0.0000
    16 C1'         73.8590    86.6380     7.8960 C.3          1 SAH900   0.0000
    17 N9          72.9620    86.4560     6.7460 N.pl3        1 SAH900   0.0000
    18 C8          71.8320    85.7260     6.8660 C.2          1 SAH900   0.0000
    19 N7          71.1490    85.6770     5.7020 N.2          1 SAH900   0.0000
    20 C5          71.8620    86.3830     4.8160 C.ar         1 SAH900   0.0000
    21 C6          71.6460    86.7010     3.4060 C.ar         1 SAH900   0.0000
    22 N6          70.5340    86.1720     2.8810 N.pl3        1 SAH900   0.0000
    23 N1          72.5670    87.4800     2.7510 N.ar         1 SAH900   0.0000
    24 C2          73.6670    87.9460     3.4150 C.ar         1 SAH900   0.0000
    25 N3          73.9340    87.6850     4.7320 N.ar         1 SAH900   0.0000
    26 C4          73.0720    86.9150     5.4880 C.ar         1 SAH900   0.0000
    27 H1          77.7112    86.4084    14.5585 H            1 SAH900   0.0000
    28 HA          78.9102    84.3171    13.9230 H            1 SAH900   0.0000
    29 HB1         78.7147    85.4370    11.5643 H            1 SAH900   0.0000
    30 HB2         77.7925    86.4334    12.4717 H            1 SAH900   0.0000
    31 HG1         76.1308    84.9804    12.5127 H            1 SAH900   0.0000
    32 HG2         77.1305    83.7348    12.8531 H            1 SAH900   0.0000
    33 H5'1        74.7600    84.0752    10.9208 H            1 SAH900   0.0000
    34 H5'2        75.1263    83.4711     9.4485 H            1 SAH900   0.0000
    35 H4'         75.9594    86.0629     9.4742 H            1 SAH900   0.0000
    36 H3'         73.6199    85.8381    10.9646 H            1 SAH900   0.0000
    37 H11         75.1226    88.0498    10.0254 H            1 SAH900   0.0000
    38 H2'         72.2839    86.1622     9.1739 H            1 SAH900   0.0000
    39 H13         73.1849    88.7571     8.8022 H            1 SAH900   0.0000
    40 H1'         74.4700    87.4172     7.7560 H            1 SAH900   0.0000
    41 H15         71.5381    85.2782     7.7104 H            1 SAH900   0.0000
    42 H16         70.3063    86.3377     1.9215 H            1 SAH900   0.0000
    43 H17         69.9311    85.6111     3.4483 H            1 SAH900   0.0000
    44 H18         74.3166    88.5123     2.9077 H            1 SAH900   0.0000
    45 H19         78.8599    85.7839    15.5368 H            1 SAH900   0.0000
@<TRIPOS>BOND
     1    1    2       1
     2    2    3       1
     3    2    6       1
     4    3    4       1
     5    4    5       1
     6    5    9       1
     7    6    7      ar
     8    6    8      ar
     9    9   10       1
    10   10   11       1
    11   10   12       1
    12   11   16       1
    13   12   13       1
    14   12   14       1
    15   14   15       1
    16   14   16       1
    17   16   17       1
    18   17   18       1
    19   17   26       1
    20   18   19       2
    21   19   20       1
    22   20   21      ar
    23   20   26      ar
    24   21   22       1
    25   21   23      ar
    26   23   24      ar
    27   24   25      ar
    28   25   26      ar
    29   24   44       1
    30    1   27       1
    31    2   28       1
    32    3   29       1
    33    3   30       1
    34    4   31       1
    35    4   32       1
    36    1   45       1
    37    9   33       1
    38    9   34       1
    39   10   35       1
    40   12   36       1
    41   13   37       1
    42   14   38       1
    43   15   39       1
    44   16   40       1
    45   18   41       1
    46   22   42       1
    47   22   43       1
@<TRIPOS>SUBSTRUCTURE
     1 SAH900      1 GROUP             4 A     SAH     0 **** SAH A 900
