@<TRIPOS>MOLECULE
3dxw_ICC_2_ligand
   19    19     1     0     0
SMALL
NO_CHARGES


@<TRIPOS>ATOM
     1 O           22.1450   -21.8820    19.9260 O.2          1 ICC451   0.0000
     2 C6          22.2550   -21.2930    20.9870 C.2          1 ICC451   0.0000
     3 N           22.0210   -19.9810    21.1010 N.am         1 ICC451   0.0000
     4 C5          22.6750   -22.0530    22.2310 C.3          1 ICC451   0.0000
     5 C4          21.5940   -22.0150    23.3160 C.3          1 ICC451   0.0000
     6 C3          21.5990   -20.7160    24.1150 C.3          1 ICC451   0.0000
     7 C2          21.0550   -19.5750    23.2670 C.3          1 ICC451   0.0000
     8 C1          22.1220   -19.1210    22.2780 C.3          1 ICC451   0.0000
     9 H1          21.7358   -19.5225    20.2593 H            1 ICC451   0.0000
    10 H2          23.5116   -21.6424    22.5936 H            1 ICC451   0.0000
    11 H3          22.8514   -23.0057    21.9836 H            1 ICC451   0.0000
    12 H4          21.7468   -22.7770    23.9453 H            1 ICC451   0.0000
    13 H5          20.7002   -22.1174    22.8794 H            1 ICC451   0.0000
    14 H6          22.5356   -20.5031    24.3935 H            1 ICC451   0.0000
    15 H7          21.0264   -20.8258    24.9275 H            1 ICC451   0.0000
    16 H8          20.8034   -18.8100    23.8599 H            1 ICC451   0.0000
    17 H9          20.2481   -19.8878    22.7660 H            1 ICC451   0.0000
    18 H10         21.9650   -18.1679    22.0194 H            1 ICC451   0.0000
    19 H11         23.0292   -19.2097    22.6893 H            1 ICC451   0.0000
@<TRIPOS>BOND
     1    1    2       2
     2    2    3      am
     3    2    4       1
     4    3    8       1
     5    4    5       1
     6    5    6       1
     7    6    7       1
     8    7    8       1
     9    3    9       1
    10    4   10       1
    11    4   11       1
    12    5   12       1
    13    5   13       1
    14    6   14       1
    15    6   15       1
    16    7   16       1
    17    7   17       1
    18    8   18       1
    19    8   19       1
@<TRIPOS>SUBSTRUCTURE
     1 ICC451      1 GROUP             4 B     ICC     0 **** ICC B 451
