@<TRIPOS>MOLECULE
3pfd_FDA_1_ligand
   84    89     1     0     0
SMALL
NO_CHARGES


@<TRIPOS>ATOM
     1 PA          35.7660    48.1780    20.2120 P.3          1 FDA390   0.0000
     2 O1A         36.3160    49.2260    21.1350 O.co2        1 FDA390   0.0000
     3 O2A         35.1330    48.5260    18.8780 O.co2        1 FDA390  -1.0000
     4 O5B         36.9940    47.1500    19.9890 O.3          1 FDA390   0.0000
     5 C5B         37.0480    46.2410    18.8870 C.3          1 FDA390   0.0000
     6 C4B         38.3970    45.5460    18.9080 C.3          1 FDA390   0.0000
     7 O4B         39.4010    46.5390    18.6880 O.3          1 FDA390   0.0000
     8 C3B         38.6660    44.9360    20.2660 C.3          1 FDA390   0.0000
     9 O3B         39.3190    43.6660    20.1580 O.3          1 FDA390   0.0000
    10 C2B         39.5710    45.9580    20.9260 C.3          1 FDA390   0.0000
    11 O2B         40.4030    45.4040    21.9330 O.3          1 FDA390   0.0000
    12 C1B         40.3590    46.4600    19.7370 C.3          1 FDA390   0.0000
    13 N9A         40.9120    47.7950    20.0140 N.pl3        1 FDA390   0.0000
    14 C8A         40.2180    48.9410    20.1670 C.2          1 FDA390   0.0000
    15 N7A         41.0860    49.9720    20.4030 N.2          1 FDA390   0.0000
    16 C5A         42.3370    49.4390    20.3910 C.ar         1 FDA390   0.0000
    17 C6A         43.6020    49.9750    20.6050 C.ar         1 FDA390   0.0000
    18 N6A         43.7360    51.3200    20.8310 N.pl3        1 FDA390   0.0000
    19 N1A         44.6840    49.1570    20.5440 N.ar         1 FDA390   0.0000
    20 C2A         44.5540    47.8410    20.2960 C.ar         1 FDA390   0.0000
    21 N3A         43.3350    47.2910    20.1160 N.ar         1 FDA390   0.0000
    22 C4A         42.2240    48.0670    20.1550 C.ar         1 FDA390   0.0000
    23 N1          29.6960    48.9970    29.2230 N.2          1 FDA390   0.0000
    24 C2          29.0590    49.7950    30.1010 C.2          1 FDA390   0.0000
    25 O2          29.1100    51.0570    29.9880 O.2          1 FDA390   0.0000
    26 N3          28.3340    49.2230    31.1040 N.pl3        1 FDA390   0.0000
    27 C4          28.2520    47.8700    31.2360 C.2          1 FDA390   0.0000
    28 O4          27.5820    47.3720    32.1700 O.2          1 FDA390   0.0000
    29 C4X         28.9140    47.0390    30.3350 C.2          1 FDA390   0.0000
    30 N5          28.7150    45.7030    30.3270 N.2          1 FDA390   0.0000
    31 C5X         28.9070    44.9380    29.1980 C.ar         1 FDA390   0.0000
    32 C6          28.3170    43.6560    29.0350 C.ar         1 FDA390   0.0000
    33 C7          28.4790    42.9200    27.8390 C.ar         1 FDA390   0.0000
    34 C7M         27.8230    41.5580    27.6970 C.3          1 FDA390   0.0000
    35 C8          29.2660    43.4640    26.8090 C.ar         1 FDA390   0.0000
    36 C8M         29.4910    42.7520    25.4980 C.3          1 FDA390   0.0000
    37 C9          29.8370    44.7310    26.9690 C.ar         1 FDA390   0.0000
    38 C9A         29.6700    45.4710    28.1570 C.ar         1 FDA390   0.0000
    39 N10         30.2250    46.7840    28.3140 N.pl3        1 FDA390   0.0000
    40 C10         29.6420    47.6390    29.3090 C.2          1 FDA390   0.0000
    41 C1'         30.8510    47.4120    27.1450 C.3          1 FDA390   0.0000
    42 C2'         32.2950    46.9280    27.0090 C.3          1 FDA390   0.0000
    43 O2'         33.1080    47.5780    28.0050 O.3          1 FDA390   0.0000
    44 C3'         32.7830    47.1700    25.5790 C.3          1 FDA390   0.0000
    45 O3'         32.3170    46.0530    24.7750 O.3          1 FDA390   0.0000
    46 C4'         34.3150    47.2810    25.4830 C.3          1 FDA390   0.0000
    47 O4'         34.8240    48.4800    26.0810 O.3          1 FDA390   0.0000
    48 C5'         34.8340    47.2910    24.0530 C.3          1 FDA390   0.0000
    49 O5'         34.0690    48.2420    23.3080 O.3          1 FDA390   0.0000
    50 P           33.4840    47.7910    21.8850 P.3          1 FDA390   0.0000
    51 O1P         32.5500    46.6340    22.1200 O.co2        1 FDA390   0.0000
    52 O2P         32.8920    49.0450    21.2930 O.co2        1 FDA390  -1.0000
    53 O3P         34.7200    47.2520    21.0140 O.3          1 FDA390   0.0000
    54 H5B1        36.9396    46.7430    18.0290 H            1 FDA390   0.0000
    55 H5B2        36.3173    45.5635    18.9714 H            1 FDA390   0.0000
    56 H4B         38.4388    44.8446    18.1965 H            1 FDA390   0.0000
    57 H3B         37.8132    44.8447    20.7802 H            1 FDA390   0.0000
    58 H5          38.6319    42.9412    20.1063 H            1 FDA390   0.0000
    59 H2B         39.0224    46.7013    21.3089 H            1 FDA390   0.0000
    60 H7          40.6069    44.4508    21.7098 H            1 FDA390   0.0000
    61 H1B         41.0885    45.8181    19.5009 H            1 FDA390   0.0000
    62 H8A         39.2228    49.0244    20.1159 H            1 FDA390   0.0000
    63 H6A1        44.6424    51.7131    20.9858 H            1 FDA390   0.0000
    64 H6A2        42.9274    51.9083    20.8411 H            1 FDA390   0.0000
    65 H2A         45.3694    47.2644    20.2445 H            1 FDA390   0.0000
    66 H13         27.8527    49.8088    31.7560 H            1 FDA390   0.0000
    67 H14         27.7766    43.2666    29.7809 H            1 FDA390   0.0000
    68 H7M1        28.0365    41.1773    26.7973 H            1 FDA390   0.0000
    69 H7M2        28.1683    40.9459    28.4084 H            1 FDA390   0.0000
    70 H7M3        26.8321    41.6538    27.7918 H            1 FDA390   0.0000
    71 H8M1        30.0770    43.3110    24.9114 H            1 FDA390   0.0000
    72 H8M2        29.9330    41.8713    25.6685 H            1 FDA390   0.0000
    73 H8M3        28.6122    42.6018    25.0451 H            1 FDA390   0.0000
    74 H21         30.3765    45.1210    26.2228 H            1 FDA390   0.0000
    75 H1'1        30.8430    48.4056    27.2577 H            1 FDA390   0.0000
    76 H1'2        30.3393    47.1657    26.3219 H            1 FDA390   0.0000
    77 H2'         32.3131    45.9435    27.1837 H            1 FDA390   0.0000
    78 H25         33.8294    48.1042    27.5549 H            1 FDA390   0.0000
    79 H3'         32.3728    48.0139    25.2332 H            1 FDA390   0.0000
    80 H27         32.6173    46.1750    23.8290 H            1 FDA390   0.0000
    81 H4'         34.7171    46.4980    25.9577 H            1 FDA390   0.0000
    82 H29         34.4308    49.2754    25.6198 H            1 FDA390   0.0000
    83 H5'1        34.7309    46.3821    23.6489 H            1 FDA390   0.0000
    84 H5'2        35.7993    47.5518    24.0448 H            1 FDA390   0.0000
@<TRIPOS>BOND
     1    1    2      ar
     2    1    3      ar
     3    1    4       1
     4    1   53       1
     5    4    5       1
     6    5    6       1
     7    6    7       1
     8    6    8       1
     9    7   12       1
    10    8    9       1
    11    8   10       1
    12   10   11       1
    13   10   12       1
    14   12   13       1
    15   13   14       1
    16   13   22       1
    17   14   15       2
    18   15   16       1
    19   16   17      ar
    20   16   22      ar
    21   17   18       1
    22   17   19      ar
    23   19   20      ar
    24   20   21      ar
    25   21   22      ar
    26   23   24       1
    27   23   40       2
    28   24   25       2
    29   24   26       1
    30   26   27       1
    31   27   28       2
    32   27   29       1
    33   29   30       2
    34   29   40       1
    35   30   31       1
    36   31   32      ar
    37   31   38      ar
    38   32   33      ar
    39   33   34       1
    40   33   35      ar
    41   35   36       1
    42   35   37      ar
    43   37   38      ar
    44   38   39       1
    45   39   40       1
    46   39   41       1
    47   41   42       1
    48   42   43       1
    49   42   44       1
    50   44   45       1
    51   44   46       1
    52   46   47       1
    53   46   48       1
    54   48   49       1
    55   49   50       1
    56   50   51      ar
    57   50   52      ar
    58   50   53       1
    59   48   84       1
    60    5   54       1
    61    5   55       1
    62    6   56       1
    63    8   57       1
    64    9   58       1
    65   10   59       1
    66   11   60       1
    67   12   61       1
    68   14   62       1
    69   18   63       1
    70   18   64       1
    71   20   65       1
    72   26   66       1
    73   32   67       1
    74   34   68       1
    75   34   69       1
    76   34   70       1
    77   36   71       1
    78   36   72       1
    79   36   73       1
    80   37   74       1
    81   41   75       1
    82   41   76       1
    83   42   77       1
    84   43   78       1
    85   44   79       1
    86   45   80       1
    87   46   81       1
    88   47   82       1
    89   48   83       1
@<TRIPOS>SUBSTRUCTURE
     1 FDA390      1 GROUP             4 A     FDA     0 **** FDA A 390
