@<TRIPOS>MOLECULE
5eow_FAD_1_ligand
   84    89     1     0     0
SMALL
NO_CHARGES


@<TRIPOS>ATOM
     1 PA          24.6380    34.8380    30.9780 P.3          1 FAD401   0.0000
     2 O1A         23.5050    34.0980    31.6290 O.co2        1 FAD401   0.0000
     3 O2A         25.6340    35.3780    31.9800 O.co2        1 FAD401  -1.0000
     4 O5B         25.3430    33.8870    29.8200 O.3          1 FAD401   0.0000
     5 C5B         26.4790    34.3830    29.1810 C.3          1 FAD401   0.0000
     6 C4B         27.1590    33.2180    28.4250 C.3          1 FAD401   0.0000
     7 O4B         28.1620    33.7200    27.7380 O.3          1 FAD401   0.0000
     8 C3B         27.7370    32.2690    29.4880 C.3          1 FAD401   0.0000
     9 O3B         27.4420    30.9740    29.1960 O.3          1 FAD401   0.0000
    10 C2B         29.2460    32.5670    29.3930 C.3          1 FAD401   0.0000
    11 O2B         30.0310    31.3990    29.8730 O.3          1 FAD401   0.0000
    12 C1B         29.4470    32.8540    28.1220 C.3          1 FAD401   0.0000
    13 N9A         30.6210    33.6770    27.9600 N.pl3        1 FAD401   0.0000
    14 C8A         30.9790    34.6400    28.8240 C.2          1 FAD401   0.0000
    15 N7A         32.1270    35.1760    28.3890 N.2          1 FAD401   0.0000
    16 C5A         32.4660    34.5390    27.2430 C.ar         1 FAD401   0.0000
    17 C6A         33.5360    34.6890    26.3930 C.ar         1 FAD401   0.0000
    18 N6A         34.6780    35.5910    26.4340 N.pl3        1 FAD401   0.0000
    19 N1A         33.6430    33.9230    25.3100 N.ar         1 FAD401   0.0000
    20 C2A         32.7030    32.9770    25.0490 C.ar         1 FAD401   0.0000
    21 N3A         31.6550    32.8200    25.8860 N.ar         1 FAD401   0.0000
    22 C4A         31.5390    33.6130    26.9770 C.ar         1 FAD401   0.0000
    23 N1          16.3700    36.4230    35.6260 N.2          1 FAD401   0.0000
    24 C2          15.0150    35.9270    35.3500 C.2          1 FAD401   0.0000
    25 O2          14.5350    36.0890    34.2870 O.2          1 FAD401   0.0000
    26 N3          14.2580    35.2360    36.4130 N.pl3        1 FAD401   0.0000
    27 C4          14.8500    35.0430    37.7290 C.2          1 FAD401   0.0000
    28 O4          14.2470    34.4790    38.5690 O.2          1 FAD401   0.0000
    29 C4X         16.2380    35.5610    37.9940 C.2          1 FAD401   0.0000
    30 N5          16.8390    35.3990    39.3010 N.2          1 FAD401   0.0000
    31 C5X         18.2200    35.9240    39.5380 C.ar         1 FAD401   0.0000
    32 C6          18.8230    35.7640    40.7890 C.ar         1 FAD401   0.0000
    33 C7          20.1170    36.2590    40.9780 C.ar         1 FAD401   0.0000
    34 C7M         20.4390    35.9210    42.4260 C.3          1 FAD401   0.0000
    35 C8          20.8050    36.8990    39.9400 C.ar         1 FAD401   0.0000
    36 C8M         22.1960    37.3520    40.3500 C.3          1 FAD401   0.0000
    37 C9          20.2100    37.0460    38.6910 C.ar         1 FAD401   0.0000
    38 C9A         18.9190    36.5670    38.4940 C.ar         1 FAD401   0.0000
    39 N10         18.2940    36.7330    37.1540 N.pl3        1 FAD401   0.0000
    40 C10         16.9650    36.2320    36.9330 C.2          1 FAD401   0.0000
    41 C1'         19.0210    37.4110    36.0780 C.3          1 FAD401   0.0000
    42 C2'         19.6250    36.3650    35.1190 C.3          1 FAD401   0.0000
    43 O2'         20.2920    35.3470    35.8140 O.3          1 FAD401   0.0000
    44 C3'         20.5960    37.0320    34.1350 C.3          1 FAD401   0.0000
    45 O3'         20.0400    38.2360    33.6870 O.3          1 FAD401   0.0000
    46 C4'         20.7790    36.1180    32.9200 C.3          1 FAD401   0.0000
    47 O4'         21.6380    35.0570    33.2050 O.3          1 FAD401   0.0000
    48 C5'         21.4180    36.9350    31.7880 C.3          1 FAD401   0.0000
    49 O5'         21.4840    36.1050    30.6580 O.3          1 FAD401   0.0000
    50 P           22.6360    36.3830    29.4950 P.3          1 FAD401   0.0000
    51 O1P         22.4120    35.3600    28.3960 O.co2        1 FAD401   0.0000
    52 O2P         22.6410    37.8240    29.0490 O.co2        1 FAD401  -1.0000
    53 O3P         24.1030    36.1670    30.1740 O.3          1 FAD401   0.0000
    54 H5B1        27.1103    34.7605    29.8585 H            1 FAD401   0.0000
    55 H5B2        26.2173    35.0990    28.5338 H            1 FAD401   0.0000
    56 H4B         26.5110    32.7443    27.8286 H            1 FAD401   0.0000
    57 H3B         27.3908    32.5093    30.3949 H            1 FAD401   0.0000
    58 H5          27.8322    30.7356    28.3067 H            1 FAD401   0.0000
    59 H2B         29.4631    33.3666    29.9530 H            1 FAD401   0.0000
    60 H7          30.2210    30.7869    29.1054 H            1 FAD401   0.0000
    61 H1B         29.5053    32.0243    27.5668 H            1 FAD401   0.0000
    62 H8A         30.4777    34.9094    29.6463 H            1 FAD401   0.0000
    63 H6A1        35.3702    35.5544    25.7132 H            1 FAD401   0.0000
    64 H6A2        34.7702    36.2472    27.1829 H            1 FAD401   0.0000
    65 H2A         32.7872    32.3979    24.2381 H            1 FAD401   0.0000
    66 H13         13.3348    34.8992    36.2282 H            1 FAD401   0.0000
    67 H14         18.3387    35.3048    41.5337 H            1 FAD401   0.0000
    68 H7M1        21.3591    36.2444    42.6471 H            1 FAD401   0.0000
    69 H7M2        19.7757    36.3660    43.0276 H            1 FAD401   0.0000
    70 H7M3        20.3939    34.9304    42.5550 H            1 FAD401   0.0000
    71 H8M1        22.6421    37.8009    39.5757 H            1 FAD401   0.0000
    72 H8M2        22.1259    37.9948    41.1128 H            1 FAD401   0.0000
    73 H8M3        22.7356    36.5585    40.6313 H            1 FAD401   0.0000
    74 H21         20.7044    37.4906    37.9440 H            1 FAD401   0.0000
    75 H1'1        19.7551    37.9650    36.4706 H            1 FAD401   0.0000
    76 H1'2        18.3918    38.0013    35.5724 H            1 FAD401   0.0000
    77 H2'         18.8803    35.9520    34.5947 H            1 FAD401   0.0000
    78 H25         21.2505    35.6024    35.9404 H            1 FAD401   0.0000
    79 H3'         21.4767    37.2005    34.5777 H            1 FAD401   0.0000
    80 H27         20.7725    38.8828    33.4745 H            1 FAD401   0.0000
    81 H4'         19.8912    35.7654    32.6242 H            1 FAD401   0.0000
    82 H29         22.1181    34.7837    32.3715 H            1 FAD401   0.0000
    83 H5'1        22.3374    37.2256    32.0530 H            1 FAD401   0.0000
    84 H5'2        20.8585    37.7396    31.5891 H            1 FAD401   0.0000
@<TRIPOS>BOND
     1    1    2      ar
     2    1    3      ar
     3    1    4       1
     4    1   53       1
     5    4    5       1
     6    5    6       1
     7    6    7       1
     8    6    8       1
     9    7   12       1
    10    8    9       1
    11    8   10       1
    12   10   11       1
    13   10   12       1
    14   12   13       1
    15   13   14       1
    16   13   22       1
    17   14   15       2
    18   15   16       1
    19   16   17      ar
    20   16   22      ar
    21   17   18       1
    22   17   19      ar
    23   19   20      ar
    24   20   21      ar
    25   21   22      ar
    26   23   24       1
    27   23   40       2
    28   24   25       2
    29   24   26       1
    30   26   27       1
    31   27   28       2
    32   27   29       1
    33   29   30       2
    34   29   40       1
    35   30   31       1
    36   31   32      ar
    37   31   38      ar
    38   32   33      ar
    39   33   34       1
    40   33   35      ar
    41   35   36       1
    42   35   37      ar
    43   37   38      ar
    44   38   39       1
    45   39   40       1
    46   39   41       1
    47   41   42       1
    48   42   43       1
    49   42   44       1
    50   44   45       1
    51   44   46       1
    52   46   47       1
    53   46   48       1
    54   48   49       1
    55   49   50       1
    56   50   51      ar
    57   50   52      ar
    58   50   53       1
    59   48   84       1
    60    5   54       1
    61    5   55       1
    62    6   56       1
    63    8   57       1
    64    9   58       1
    65   10   59       1
    66   11   60       1
    67   12   61       1
    68   14   62       1
    69   18   63       1
    70   18   64       1
    71   20   65       1
    72   26   66       1
    73   32   67       1
    74   34   68       1
    75   34   69       1
    76   34   70       1
    77   36   71       1
    78   36   72       1
    79   36   73       1
    80   37   74       1
    81   41   75       1
    82   41   76       1
    83   42   77       1
    84   43   78       1
    85   44   79       1
    86   45   80       1
    87   46   81       1
    88   47   82       1
    89   48   83       1
@<TRIPOS>SUBSTRUCTURE
     1 FAD401      1 GROUP             4 A     FAD     0 **** FAD A 401
