@<TRIPOS>MOLECULE
1lvg_5GP_1_ligand
   36    38     1     0     0
SMALL
NO_CHARGES


@<TRIPOS>ATOM
     1 P           85.4460   -30.6950    50.9940 P.3          1 5GP1202   0.0000
     2 O1P         86.2380   -31.6250    51.8040 O.co2        1 5GP1202   0.0000
     3 O2P         84.3380   -31.3630    50.2460 O.co2        1 5GP1202  -1.0000
     4 O3P         84.9030   -29.5340    51.8470 O.co2        1 5GP1202  -1.0000
     5 O5'         86.3010   -29.9120    49.9430 O.3          1 5GP1202   0.0000
     6 C5'         87.5960   -29.4550    50.3070 C.3          1 5GP1202   0.0000
     7 C4'         88.2620   -28.6190    49.2400 C.3          1 5GP1202   0.0000
     8 O4'         88.8600   -29.4380    48.1410 O.3          1 5GP1202   0.0000
     9 C3'         87.4270   -27.5380    48.5180 C.3          1 5GP1202   0.0000
    10 O3'         88.1460   -26.3160    48.2540 O.3          1 5GP1202   0.0000
    11 C2'         87.0310   -28.1830    47.2250 C.3          1 5GP1202   0.0000
    12 O2'         86.7610   -27.2600    46.1870 O.3          1 5GP1202   0.0000
    13 C1'         88.2020   -29.0710    46.9230 C.3          1 5GP1202   0.0000
    14 N9          87.9600   -30.1720    45.9620 N.pl3        1 5GP1202   0.0000
    15 C8          86.9380   -31.0850    45.8300 C.2          1 5GP1202   0.0000
    16 N7          87.0570   -31.8960    44.8060 N.2          1 5GP1202   0.0000
    17 C5          88.2780   -31.4630    44.2180 C.2          1 5GP1202   0.0000
    18 C6          88.9490   -31.9540    43.0300 C.2          1 5GP1202   0.0000
    19 O6          88.6020   -32.8520    42.2630 O.2          1 5GP1202   0.0000
    20 N1          90.1540   -31.2450    42.7850 N.pl3        1 5GP1202   0.0000
    21 C2          90.6300   -30.2090    43.5720 C.2          1 5GP1202   0.0000
    22 N2          91.7880   -29.6900    43.1340 N.pl3        1 5GP1202   0.0000
    23 N3          90.0080   -29.7320    44.6750 N.2          1 5GP1202   0.0000
    24 C4          88.8310   -30.4200    44.9320 C.2          1 5GP1202   0.0000
    25 H5'1        88.1724   -30.2511    50.4910 H            1 5GP1202   0.0000
    26 H5'2        87.5151   -28.9031    51.1370 H            1 5GP1202   0.0000
    27 H4'         89.0206   -28.1425    49.6845 H            1 5GP1202   0.0000
    28 H3'         86.6080   -27.3346    49.0546 H            1 5GP1202   0.0000
    29 H5          88.9364   -26.5130    47.6739 H            1 5GP1202   0.0000
    30 H2'         86.2214   -28.7500    47.3770 H            1 5GP1202   0.0000
    31 H7          85.8170   -27.3735    45.8772 H            1 5GP1202   0.0000
    32 H1'         88.8546   -28.4731    46.4576 H            1 5GP1202   0.0000
    33 H9          86.1662   -31.1266    46.4645 H            1 5GP1202   0.0000
    34 H10         90.6972   -31.5119    41.9889 H            1 5GP1202   0.0000
    35 H11         92.2178   -28.9362    43.6311 H            1 5GP1202   0.0000
    36 H12         92.2208   -30.0572    42.3107 H            1 5GP1202   0.0000
@<TRIPOS>BOND
     1    1    2      ar
     2    1    3      ar
     3    1    4      ar
     4    1    5       1
     5    5    6       1
     6    6    7       1
     7    7    8       1
     8    7    9       1
     9    8   13       1
    10    9   10       1
    11    9   11       1
    12   11   12       1
    13   11   13       1
    14   13   14       1
    15   14   15       1
    16   14   24       1
    17   15   16       2
    18   16   17       1
    19   17   18       1
    20   17   24       2
    21   18   19       2
    22   18   20       1
    23   20   21       1
    24   21   22       1
    25   21   23       2
    26   23   24       1
    27   22   36       1
    28   22   35       1
    29    6   25       1
    30    6   26       1
    31    7   27       1
    32    9   28       1
    33   10   29       1
    34   11   30       1
    35   12   31       1
    36   13   32       1
    37   15   33       1
    38   20   34       1
@<TRIPOS>SUBSTRUCTURE
     1 5GP1202     1 GROUP             4 A     5GP     0 **** 5GP A1202
