@<TRIPOS>MOLECULE
3kp4_MII_1_ligand
   45    47     1     0     0
SMALL
NO_CHARGES


@<TRIPOS>ATOM
     1 C          -27.2780   -31.8130     6.1130 C.2          1 MII2001   0.0000
     2 N          -25.7330   -32.4110     4.3610 N.am         1 MII2001   0.0000
     3 O          -28.4710   -31.9860     5.8830 O.2          1 MII2001   0.0000
     4 CA         -26.0200   -32.6230     5.7930 C.3          1 MII2001   0.0000
     5 CB         -25.3950   -31.6540     6.7870 C.3          1 MII2001   0.0000
     6 CAA        -24.9830   -29.4140     1.9050 C.3          1 MII2001   0.0000
     7 CAB        -28.5250   -34.6960     1.2250 C.3          1 MII2001   0.0000
     8 CAC        -25.2960   -28.6130     4.8700 C.3          1 MII2001   0.0000
     9 CAD        -24.1260   -27.9830     7.0170 C.3          1 MII2001   0.0000
    10 OAE        -25.8830   -28.4580     9.2160 O.co2        1 MII2001   0.0000
    11 OAF        -27.4490   -33.7250     3.7370 O.2          1 MII2001   0.0000
    12 OAH        -25.5620   -30.6480     9.0480 O.co2        1 MII2001  -1.0000
    13 CAI        -25.3710   -32.4140    -0.7000 C.ar         1 MII2001   0.0000
    14 CAJ        -25.0240   -31.4730     0.2700 C.ar         1 MII2001   0.0000
    15 CAK        -26.0890   -33.5430    -0.3200 C.ar         1 MII2001   0.0000
    16 OAM        -25.0750   -30.7030     2.5260 O.3          1 MII2001   0.0000
    17 OAN        -27.1090   -34.8660     1.3620 O.3          1 MII2001   0.0000
    18 SAO        -23.9850   -30.6180     6.2430 S.3          1 MII2001   0.0000
    19 CAP        -25.8610   -29.5330     8.5740 C.2          1 MII2001   0.0000
    20 CAQ        -26.4780   -33.0260     3.4460 C.2          1 MII2001   0.0000
    21 CAS        -25.3900   -31.6510     1.5950 C.ar         1 MII2001   0.0000
    22 CAT        -26.4490   -33.7230     1.0090 C.ar         1 MII2001   0.0000
    23 CAU        -26.1090   -32.7860     1.9750 C.ar         1 MII2001   0.0000
    24 CAW        -26.1950   -29.4490     7.0810 C.3          1 MII2001   0.0000
    25 NAX        -26.5570   -30.7710     6.5410 N.am         1 MII2001   0.0000
    26 CAY        -24.9400   -29.0560     6.2910 C.3          1 MII2001   0.0000
    27 H1         -24.9846   -31.8099     4.0806 H            1 MII2001   0.0000
    28 HA         -26.0425   -33.5788     6.0862 H            1 MII2001   0.0000
    29 HB         -25.3234   -32.0013     7.7220 H            1 MII2001   0.0000
    30 HAA1       -24.7522   -28.7275     2.5945 H            1 MII2001   0.0000
    31 HAA2       -24.2720   -29.4326     1.2021 H            1 MII2001   0.0000
    32 HAA3       -25.8607   -29.1828     1.4853 H            1 MII2001   0.0000
    33 HAB1       -28.9892   -35.5419     1.4876 H            1 MII2001   0.0000
    34 HAB2       -28.8301   -33.9505     1.8176 H            1 MII2001   0.0000
    35 HAB3       -28.7440   -34.4769     0.2742 H            1 MII2001   0.0000
    36 HAC1       -25.8265   -29.3314     4.4199 H            1 MII2001   0.0000
    37 HAC2       -25.8375   -27.7732     4.9085 H            1 MII2001   0.0000
    38 HAC3       -24.4566   -28.4450     4.3531 H            1 MII2001   0.0000
    39 HAD1       -23.9078   -28.2981     7.9406 H            1 MII2001   0.0000
    40 HAD2       -23.2786   -27.8107     6.5147 H            1 MII2001   0.0000
    41 HAD3       -24.6595   -27.1389     7.0701 H            1 MII2001   0.0000
    42 HAI        -25.1072   -32.2786    -1.6550 H            1 MII2001   0.0000
    43 HAJ        -24.5048   -30.6601     0.0060 H            1 MII2001   0.0000
    44 HAK        -26.3461   -34.2254    -1.0042 H            1 MII2001   0.0000
    45 HAW        -26.9309   -28.7908     6.9219 H            1 MII2001   0.0000
@<TRIPOS>BOND
     1    1    3       2
     2    1    4       1
     3    1   25      am
     4    2    4       1
     5    2   20      am
     6    4    5       1
     7    5   18       1
     8    5   25       1
     9    6   16       1
    10    7   17       1
    11    8   26       1
    12    9   26       1
    13   10   19      ar
    14   11   20       2
    15   12   19      ar
    16   13   14      ar
    17   13   15      ar
    18   14   21      ar
    19   15   22      ar
    20   16   21       1
    21   17   22       1
    22   18   26       1
    23   19   24       1
    24   20   23       1
    25   21   23      ar
    26   22   23      ar
    27   24   25       1
    28   24   26       1
    29    2   27       1
    30    4   28       1
    31    5   29       1
    32    6   30       1
    33    6   31       1
    34    6   32       1
    35    7   33       1
    36    7   34       1
    37    7   35       1
    38    8   36       1
    39    8   37       1
    40    8   38       1
    41    9   39       1
    42    9   40       1
    43    9   41       1
    44   24   45       1
    45   13   42       1
    46   14   43       1
    47   15   44       1
@<TRIPOS>SUBSTRUCTURE
     1 MII2001     1 GROUP             4 A     MII     0 **** MII A2001
