@<TRIPOS>MOLECULE
4qvb_F42_1_ligand
   42    44     1     0     0
SMALL
NO_CHARGES


@<TRIPOS>ATOM
     1 N1          10.0300    18.5340    16.5030 N.2          1 F42201   0.0000
     2 C2          10.9920    17.7900    17.0630 C.2          1 F42201   0.0000
     3 O2          10.8700    17.4160    18.4170 O.2          1 F42201   0.0000
     4 N3          12.0540    17.4050    16.3270 N.pl3        1 F42201   0.0000
     5 C4          12.2050    17.8000    15.0350 C.2          1 F42201   0.0000
     6 O4          13.3340    17.4090    14.2930 O.2          1 F42201   0.0000
     7 C4A         11.2310    18.5810    14.4110 C.2          1 F42201   0.0000
     8 C5          11.0870    18.7430    12.9280 C.2          1 F42201   0.0000
     9 C5A          9.7480    18.9800    12.3130 C.ar         1 F42201   0.0000
    10 C6           9.5090    18.9380    10.9390 C.ar         1 F42201   0.0000
    11 C7           8.2150    19.1860    10.4760 C.ar         1 F42201   0.0000
    12 C8           7.1700    19.4660    11.3510 C.ar         1 F42201   0.0000
    13 O8M          5.8700    19.7120    10.8640 O.3          1 F42201   0.0000
    14 C9           7.4000    19.5120    12.7080 C.ar         1 F42201   0.0000
    15 C9A          8.6820    19.2640    13.1590 C.ar         1 F42201   0.0000
    16 N10          8.8800    19.3170    14.5820 N.pl3        1 F42201   0.0000
    17 C10         10.0850    18.7990    15.1880 C.2          1 F42201   0.0000
    18 C1'          7.7880    19.7590    15.3980 C.3          1 F42201   0.0000
    19 C2'          7.3390    18.5500    16.2200 C.3          1 F42201   0.0000
    20 O2'          6.3650    17.8070    15.4830 O.3          1 F42201   0.0000
    21 C3'          6.7250    19.0280    17.5380 C.3          1 F42201   0.0000
    22 O3'          7.3620    18.3600    18.6290 O.3          1 F42201   0.0000
    23 C4'          5.2280    18.7110    17.5490 C.3          1 F42201   0.0000
    24 O4'          4.5780    19.4470    16.5100 O.3          1 F42201   0.0000
    25 C5'          4.6330    19.1040    18.9020 C.3          1 F42201   0.0000
    26 H1          12.7470    16.8150    16.7413 H            1 F42201   0.0000
    27 H2          11.8972    18.6917    12.3441 H            1 F42201   0.0000
    28 H3          10.2495    18.7344    10.2985 H            1 F42201   0.0000
    29 H4           8.0352    19.1618     9.4926 H            1 F42201   0.0000
    30 H8M          5.6913    19.6863     9.8804 H            1 F42201   0.0000
    31 H6           6.6604    19.7189    13.3484 H            1 F42201   0.0000
    32 H1'1         7.0369    20.0834    14.8230 H            1 F42201   0.0000
    33 H1'2         8.0865    20.4965    16.0039 H            1 F42201   0.0000
    34 H2'          8.1279    17.9663    16.4123 H            1 F42201   0.0000
    35 H10          6.8249    17.1162    14.9251 H            1 F42201   0.0000
    36 H3'          6.8573    20.0151    17.6286 H            1 F42201   0.0000
    37 H12          8.3401    18.5678    18.6218 H            1 F42201   0.0000
    38 H4'          5.0937    17.7317    17.3978 H            1 F42201   0.0000
    39 H14          4.1402    18.8109    15.8746 H            1 F42201   0.0000
    40 H5'1         3.6547    18.8967    18.9088 H            1 F42201   0.0000
    41 H5'2         5.0879    18.5889    19.6285 H            1 F42201   0.0000
    42 H5'3         4.7673    20.0833    19.0534 H            1 F42201   0.0000
@<TRIPOS>BOND
     1    1    2       1
     2    1   17       2
     3    2    3       2
     4    2    4       1
     5    4    5       1
     6    5    6       2
     7    5    7       1
     8    7    8       2
     9    7   17       1
    10    8    9       1
    11    9   10      ar
    12    9   15      ar
    13   10   11      ar
    14   11   12      ar
    15   12   13       1
    16   12   14      ar
    17   14   15      ar
    18   15   16       1
    19   16   17       1
    20   16   18       1
    21   18   19       1
    22   19   20       1
    23   19   21       1
    24   21   22       1
    25   21   23       1
    26   23   24       1
    27   23   25       1
    28    4   26       1
    29    8   27       1
    30   10   28       1
    31   11   29       1
    32   13   30       1
    33   14   31       1
    34   18   32       1
    35   18   33       1
    36   19   34       1
    37   20   35       1
    38   21   36       1
    39   22   37       1
    40   23   38       1
    41   24   39       1
    42   25   40       1
    43   25   41       1
    44   25   42       1
@<TRIPOS>SUBSTRUCTURE
     1 F42201      1 GROUP             4 B     F42     0 **** F42 B 201
