@<TRIPOS>MOLECULE
1j0d_5PA_2_ligand
   38    39     1     0     0
SMALL
NO_CHARGES


@<TRIPOS>ATOM
     1 C4          10.4370   110.6840    30.3700 C.ar         1 5PA1501   0.0000
     2 C4A          9.5240   110.1890    29.2140 C.3          1 5PA1501   0.0000
     3 P            8.9460   106.5140    32.2620 P.3          1 5PA1501   0.0000
     4 O1P          8.7180   106.5830    33.7110 O.co2        1 5PA1501   0.0000
     5 O2P          9.8210   105.3000    31.7720 O.co2        1 5PA1501  -1.0000
     6 O3P          7.7660   106.6050    31.4160 O.co2        1 5PA1501  -1.0000
     7 O4P          9.8530   107.6950    31.8600 O.3          1 5PA1501   0.0000
     8 C5A          9.4570   109.0170    32.0850 C.3          1 5PA1501   0.0000
     9 C5          10.3840   110.1270    31.6920 C.ar         1 5PA1501   0.0000
    10 N1          12.0840   111.6120    32.3800 N.ar         1 5PA1501   1.0000
    11 C6          11.2090   110.6050    32.6660 C.ar         1 5PA1501   0.0000
    12 C2          12.1780   112.1850    31.1190 C.ar         1 5PA1501   0.0000
    13 C2A         13.1920   113.3090    30.9000 C.3          1 5PA1501   0.0000
    14 C3          11.3530   111.7290    30.0950 C.ar         1 5PA1501   0.0000
    15 O3          11.4220   112.2760    28.8440 O.3          1 5PA1501   0.0000
    16 N            8.9230   110.6200    28.1160 N.4          1 5PA1501   1.0000
    17 C8           7.6250   110.6020    27.3000 C.3          1 5PA1501   0.0000
    18 C7           7.6270   111.6930    26.1230 C.2          1 5PA1501   0.0000
    19 O7           8.6830   112.3250    25.9120 O.co2        1 5PA1501   0.0000
    20 O8           6.5870   111.8610    25.4550 O.co2        1 5PA1501  -1.0000
    21 C9           6.8860   109.2190    27.0770 C.3          1 5PA1501   0.0000
    22 C10          6.2770   110.2370    28.0320 C.3          1 5PA1501   0.0000
    23 H4A1         8.7471   109.8235    29.7267 H            1 5PA1501   0.0000
    24 H4A2        10.0685   109.4332    28.8502 H            1 5PA1501   0.0000
    25 H5A1         9.2874   109.1097    33.0661 H            1 5PA1501   0.0000
    26 H5A2         8.6027   109.1568    31.5843 H            1 5PA1501   0.0000
    27 H5          11.1731   110.2187    33.5877 H            1 5PA1501   0.0000
    28 H2A1        13.1453   113.6198    29.9507 H            1 5PA1501   0.0000
    29 H2A2        12.9812   114.0719    31.5112 H            1 5PA1501   0.0000
    30 H2A3        14.1124   112.9702    31.0949 H            1 5PA1501   0.0000
    31 H9          10.8238   111.9386    28.1171 H            1 5PA1501   0.0000
    32 H10          9.5650   110.2862    27.4258 H            1 5PA1501   0.0000
    33 H11          7.2871   108.3768    27.4372 H            1 5PA1501   0.0000
    34 H12          6.4402   109.0284    26.2024 H            1 5PA1501   0.0000
    35 H13          5.4322   110.7096    27.7811 H            1 5PA1501   0.0000
    36 H14          6.2791   110.0579    29.0158 H            1 5PA1501   0.0000
    37 H15          9.0404   111.6064    28.2312 H            1 5PA1501   0.0000
    38 H16         12.6810   111.9506    33.1072 H            1 5PA1501   0.0000
@<TRIPOS>BOND
     1    1    2       1
     2    1    9      ar
     3    1   14      ar
     4    2   16       1
     5    3    4      ar
     6    3    5      ar
     7    3    6      ar
     8    3    7       1
     9    7    8       1
    10    8    9       1
    11    9   11      ar
    12   10   11      ar
    13   10   12      ar
    14   12   13       1
    15   12   14      ar
    16   14   15       1
    17   16   17       1
    18   17   18       1
    19   17   21       1
    20   17   22       1
    21   18   19      ar
    22   18   20      ar
    23   21   22       1
    24    2   23       1
    25    2   24       1
    26   22   36       1
    27   22   35       1
    28    8   25       1
    29    8   26       1
    30   11   27       1
    31   13   28       1
    32   13   29       1
    33   13   30       1
    34   15   31       1
    35   16   32       1
    36   16   37       1
    37   21   33       1
    38   21   34       1
    39   10   38       1
@<TRIPOS>SUBSTRUCTURE
     1 5PA1501     1 GROUP             4 B     5PA     0 **** 5PA B1501
