@<TRIPOS>MOLECULE
3sw1_FMN_2_ligand
   52    54     1     0     0
SMALL
NO_CHARGES


@<TRIPOS>ATOM
     1 N1         -12.5400    33.0350    31.0590 N.2          1 FMN500   0.0000
     2 C2         -13.6330    33.3550    30.2660 C.2          1 FMN500   0.0000
     3 O2         -14.7130    33.5260    30.7990 O.2          1 FMN500   0.0000
     4 N3         -13.4310    33.5160    28.9120 N.am         1 FMN500   0.0000
     5 C4         -12.2490    33.3470    28.2540 C.2          1 FMN500   0.0000
     6 O4         -12.1270    33.5680    27.0430 O.2          1 FMN500   0.0000
     7 C4A        -10.9300    33.4370    29.0920 C.3          1 FMN500   0.0000
     8 N5          -9.9460    32.5690    28.4610 N.pl3        1 FMN500   0.0000
     9 C5A         -8.8000    32.2310    29.2340 C.ar         1 FMN500   0.0000
    10 C6          -7.5710    32.0460    28.6110 C.ar         1 FMN500   0.0000
    11 C7          -6.4400    31.7290    29.3830 C.ar         1 FMN500   0.0000
    12 C7M         -5.1160    31.5400    28.6780 C.3          1 FMN500   0.0000
    13 C8          -6.6490    31.6160    30.7710 C.ar         1 FMN500   0.0000
    14 C8M         -5.4200    31.2810    31.6430 C.3          1 FMN500   0.0000
    15 C9          -7.8680    31.8120    31.3990 C.ar         1 FMN500   0.0000
    16 C9A         -9.0230    32.1320    30.6200 C.ar         1 FMN500   0.0000
    17 N10        -10.2540    32.3200    31.2170 N.pl3        1 FMN500   0.0000
    18 C10        -11.3420    32.8050    30.4540 C.2          1 FMN500   0.0000
    19 C1'        -10.6990    31.6570    32.4670 C.3          1 FMN500   0.0000
    20 C2'        -10.3850    32.4710    33.7960 C.3          1 FMN500   0.0000
    21 O2'         -9.3800    33.5090    33.5720 O.3          1 FMN500   0.0000
    22 C3'        -10.1090    31.5760    35.0740 C.3          1 FMN500   0.0000
    23 O3'         -8.8380    30.9800    35.0500 O.3          1 FMN500   0.0000
    24 C4'        -11.2300    30.5470    35.3350 C.3          1 FMN500   0.0000
    25 O4'        -12.5000    31.1790    35.5080 O.3          1 FMN500   0.0000
    26 C5'        -10.8610    29.6510    36.5580 C.3          1 FMN500   0.0000
    27 O5'        -10.4500    30.3900    37.7070 O.3          1 FMN500   0.0000
    28 P          -11.4970    30.9590    38.7860 P.3          1 FMN500   0.0000
    29 O1P        -12.3970    29.7980    39.2540 O.co2        1 FMN500   0.0000
    30 O2P        -10.7570    31.5210    39.9800 O.co2        1 FMN500  -1.0000
    31 O3P        -12.4700    32.0030    38.1770 O.co2        1 FMN500  -1.0000
    32 H1         -14.2234    33.7808    28.3625 H            1 FMN500   0.0000
    33 H4A        -10.6032    34.3770    29.1903 H            1 FMN500   0.0000
    34 H3         -10.0695    32.2269    27.5295 H            1 FMN500   0.0000
    35 H4          -7.4920    32.1380    27.6184 H            1 FMN500   0.0000
    36 H7M1        -4.4089    31.3204    29.3501 H            1 FMN500   0.0000
    37 H7M2        -5.1932    30.7920    28.0188 H            1 FMN500   0.0000
    38 H7M3        -4.8702    32.3826    28.1988 H            1 FMN500   0.0000
    39 H8M1        -5.6965    31.2285    32.6026 H            1 FMN500   0.0000
    40 H8M2        -5.0384    30.4019    31.3575 H            1 FMN500   0.0000
    41 H8M3        -4.7290    31.9956    31.5338 H            1 FMN500   0.0000
    42 H11         -7.9397    31.7300    32.3930 H            1 FMN500   0.0000
    43 H1'1       -10.2418    30.7698    32.5293 H            1 FMN500   0.0000
    44 H1'2       -11.6879    31.5192    32.4120 H            1 FMN500   0.0000
    45 H2'        -11.2287    32.9664    34.0029 H            1 FMN500   0.0000
    46 H15         -9.5427    34.2712    34.1985 H            1 FMN500   0.0000
    47 H3'        -10.1119    32.1978    35.8572 H            1 FMN500   0.0000
    48 H17         -8.7130    30.4281    35.8745 H            1 FMN500   0.0000
    49 H4'        -11.2920    29.9546    34.5317 H            1 FMN500   0.0000
    50 H19        -12.4583    31.8028    36.2884 H            1 FMN500   0.0000
    51 H5'1       -10.1138    29.0429    36.2898 H            1 FMN500   0.0000
    52 H5'2       -11.6627    29.1059    36.8033 H            1 FMN500   0.0000
@<TRIPOS>BOND
     1    1    2       1
     2    1   18       2
     3    2    3       2
     4    2    4      am
     5    4    5      am
     6    5    6       2
     7    5    7       1
     8    7    8       1
     9    7   18       1
    10    8    9       1
    11    9   10      ar
    12    9   16      ar
    13   10   11      ar
    14   11   12       1
    15   11   13      ar
    16   13   14       1
    17   13   15      ar
    18   15   16      ar
    19   16   17       1
    20   17   18       1
    21   17   19       1
    22   19   20       1
    23   20   21       1
    24   20   22       1
    25   22   23       1
    26   22   24       1
    27   24   25       1
    28   24   26       1
    29   26   27       1
    30   27   28       1
    31   28   29      ar
    32   28   30      ar
    33   28   31      ar
    34    4   32       1
    35    7   33       1
    36    8   34       1
    37   10   35       1
    38   12   36       1
    39   12   37       1
    40   12   38       1
    41   14   39       1
    42   14   40       1
    43   14   41       1
    44   15   42       1
    45   19   43       1
    46   19   44       1
    47   20   45       1
    48   21   46       1
    49   22   47       1
    50   23   48       1
    51   24   49       1
    52   25   50       1
    53   26   51       1
    54   26   52       1
@<TRIPOS>SUBSTRUCTURE
     1 FMN500      1 GROUP             4 B     FMN     0 **** FMN B 500
