@<TRIPOS>MOLECULE
5eoy_ADP_1_ligand
   39    41     1     0     0
SMALL
NO_CHARGES


@<TRIPOS>ATOM
     1 PB          57.5800   -76.8630   145.2650 P.3          1 ADP401   0.0000
     2 O1B         57.0020   -77.1060   143.9220 O.co2        1 ADP401   0.0000
     3 O2B         58.5720   -77.8880   145.6750 O.co2        1 ADP401  -1.0000
     4 O3B         56.5020   -76.6040   146.2600 O.co2        1 ADP401  -1.0000
     5 PA          58.3240   -74.2290   146.0280 P.3          1 ADP401   0.0000
     6 O1A         56.9780   -74.1300   146.6490 O.co2        1 ADP401   0.0000
     7 O2A         59.5490   -74.0140   146.8320 O.co2        1 ADP401  -1.0000
     8 O3A         58.4770   -75.5560   145.1530 O.3          1 ADP401   0.0000
     9 O5'         58.3870   -73.1650   144.8770 O.3          1 ADP401   0.0000
    10 C5'         59.6510   -72.7040   144.4680 C.3          1 ADP401   0.0000
    11 C4'         59.4240   -71.8560   143.2410 C.3          1 ADP401   0.0000
    12 O4'         59.2810   -70.5130   143.6560 O.3          1 ADP401   0.0000
    13 C3'         60.6240   -71.9310   142.3350 C.3          1 ADP401   0.0000
    14 O3'         60.1580   -72.0300   140.9960 O.3          1 ADP401   0.0000
    15 C2'         61.3170   -70.6160   142.4950 C.3          1 ADP401   0.0000
    16 O2'         61.7280   -70.2010   141.2110 O.3          1 ADP401   0.0000
    17 C1'         60.2360   -69.7010   143.0060 C.3          1 ADP401   0.0000
    18 N9          60.7590   -68.7360   143.9800 N.pl3        1 ADP401   0.0000
    19 C8          61.3720   -69.0200   145.1260 C.2          1 ADP401   0.0000
    20 N7          61.7100   -67.8900   145.7740 N.2          1 ADP401   0.0000
    21 C5          61.3090   -66.8650   145.0280 C.ar         1 ADP401   0.0000
    22 C6          61.3520   -65.4080   145.1250 C.ar         1 ADP401   0.0000
    23 N6          61.9140   -64.8070   146.1820 N.pl3        1 ADP401   0.0000
    24 N1          60.8190   -64.6980   144.1250 N.ar         1 ADP401   0.0000
    25 C2          60.2560   -65.2870   143.0670 C.ar         1 ADP401   0.0000
    26 N3          60.1780   -66.6050   142.9140 N.ar         1 ADP401   0.0000
    27 C4          60.6840   -67.4270   143.8450 C.ar         1 ADP401   0.0000
    28 H5'1        60.2457   -73.4772   144.2479 H            1 ADP401   0.0000
    29 H5'2        60.0699   -72.1570   145.1928 H            1 ADP401   0.0000
    30 H4'         58.6034   -72.1590   142.7564 H            1 ADP401   0.0000
    31 H3'         61.2218   -72.6956   142.5758 H            1 ADP401   0.0000
    32 H5          60.4983   -71.2531   140.4663 H            1 ADP401   0.0000
    33 H2'         62.0862   -70.6754   143.1312 H            1 ADP401   0.0000
    34 H7          62.1975   -69.3207   141.2796 H            1 ADP401   0.0000
    35 H1'         59.8091   -69.2173   142.2420 H            1 ADP401   0.0000
    36 H9          61.5560   -69.9446   145.4596 H            1 ADP401   0.0000
    37 H10         61.9368   -63.8087   146.2359 H            1 ADP401   0.0000
    38 H11         62.3108   -65.3566   146.9172 H            1 ADP401   0.0000
    39 H12         59.8720   -64.7045   142.3506 H            1 ADP401   0.0000
@<TRIPOS>BOND
     1    1    2      ar
     2    1    3      ar
     3    1    4      ar
     4    1    8       1
     5    5    6      ar
     6    5    7      ar
     7    5    8       1
     8    5    9       1
     9    9   10       1
    10   10   11       1
    11   11   12       1
    12   11   13       1
    13   12   17       1
    14   13   14       1
    15   13   15       1
    16   15   16       1
    17   15   17       1
    18   17   18       1
    19   18   19       1
    20   18   27       1
    21   19   20       2
    22   20   21       1
    23   21   22      ar
    24   21   27      ar
    25   22   23       1
    26   22   24      ar
    27   24   25      ar
    28   25   26      ar
    29   26   27      ar
    30   25   39       1
    31   23   38       1
    32   23   37       1
    33   10   28       1
    34   10   29       1
    35   11   30       1
    36   13   31       1
    37   14   32       1
    38   15   33       1
    39   16   34       1
    40   17   35       1
    41   19   36       1
@<TRIPOS>SUBSTRUCTURE
     1 ADP401      1 GROUP             4 A     ADP     0 **** ADP A 401
