@<TRIPOS>MOLECULE
4hxy_NDP_2_ligand
   73    77     1     0     0
SMALL
NO_CHARGES


@<TRIPOS>ATOM
     1 PA           7.3820    52.1640    21.8330 P.3          1 NDP501   0.0000
     2 O1A          6.4100    53.3250    21.9710 O.co2        1 NDP501   0.0000
     3 O2A          7.3250    51.4560    20.5350 O.co2        1 NDP501  -1.0000
     4 O5B          7.1340    51.0800    22.9760 O.3          1 NDP501   0.0000
     5 C5B          6.6990    51.4970    24.2610 C.3          1 NDP501   0.0000
     6 C4B          5.6570    50.4980    24.6680 C.3          1 NDP501   0.0000
     7 O4B          5.1990    50.7520    25.9910 O.3          1 NDP501   0.0000
     8 C3B          4.4200    50.4270    23.8220 C.3          1 NDP501   0.0000
     9 O3B          4.2120    49.0260    23.6170 O.3          1 NDP501   0.0000
    10 C2B          3.2910    50.9250    24.7050 C.3          1 NDP501   0.0000
    11 O2B          2.1460    50.2450    24.2390 O.3          1 NDP501   0.0000
    12 C1B          3.8200    50.5050    26.0830 C.3          1 NDP501   0.0000
    13 N9A          3.2530    51.2070    27.2540 N.pl3        1 NDP501   0.0000
    14 C8A          3.2120    52.5540    27.5270 C.2          1 NDP501   0.0000
    15 N7A          2.5680    52.7350    28.7010 N.2          1 NDP501   0.0000
    16 C5A          2.2140    51.5210    29.1920 C.ar         1 NDP501   0.0000
    17 C6A          1.5500    51.1090    30.3460 C.ar         1 NDP501   0.0000
    18 N6A          1.0350    51.9700    31.2310 N.pl3        1 NDP501   0.0000
    19 N1A          1.3360    49.7520    30.5240 N.ar         1 NDP501   0.0000
    20 C2A          1.7670    48.8260    29.6110 C.ar         1 NDP501   0.0000
    21 N3A          2.4440    49.2180    28.4900 N.ar         1 NDP501   0.0000
    22 C4A          2.6540    50.5630    28.2950 C.ar         1 NDP501   0.0000
    23 O3           8.8350    52.7620    22.2510 O.3          1 NDP501   0.0000
    24 PN          10.2540    52.0180    22.0270 P.3          1 NDP501   0.0000
    25 O1N         10.0840    50.6130    21.6820 O.co2        1 NDP501   0.0000
    26 O2N         11.0950    52.8680    21.1720 O.co2        1 NDP501  -1.0000
    27 O5D         10.7900    52.0920    23.5370 O.3          1 NDP501   0.0000
    28 C5D         10.8200    50.9940    24.4300 C.3          1 NDP501   0.0000
    29 C4D         11.5550    51.4640    25.6740 C.3          1 NDP501   0.0000
    30 O4D         12.8940    51.7340    25.3030 O.3          1 NDP501   0.0000
    31 C3D         11.0060    52.7470    26.2920 C.3          1 NDP501   0.0000
    32 O3D         10.9340    52.6030    27.7070 O.3          1 NDP501   0.0000
    33 C2D         12.0150    53.8100    25.9150 C.3          1 NDP501   0.0000
    34 O2D         12.1250    54.8450    26.9000 O.3          1 NDP501   0.0000
    35 C1D         13.3000    52.9970    25.7730 C.3          1 NDP501   0.0000
    36 N1N         14.2850    53.5520    24.8310 N.ar         1 NDP501   1.0000
    37 C2N         14.0330    53.6040    23.5030 C.ar         1 NDP501   0.0000
    38 C3N         14.8600    54.3250    22.6620 C.ar         1 NDP501   0.0000
    39 C7N         14.6470    54.3120    21.1990 C.2          1 NDP501   0.0000
    40 O7N         15.6590    54.8440    20.4490 O.2          1 NDP501   0.0000
    41 N7N         13.5640    53.8440    20.6320 N.am         1 NDP501   0.0000
    42 C4N         16.1780    54.8250    23.1500 C.ar         1 NDP501   0.0000
    43 C5N         16.3570    54.7160    24.6170 C.ar         1 NDP501   0.0000
    44 C6N         15.4160    54.0860    25.3760 C.ar         1 NDP501   0.0000
    45 P2B          0.6240    50.5990    24.6980 P.3          1 NDP501   0.0000
    46 O1X         -0.1900    49.5680    23.9330 O.co2        1 NDP501   0.0000
    47 O2X          0.3230    52.0520    24.3360 O.co2        1 NDP501  -1.0000
    48 O3X          0.5110    50.4430    26.1610 O.co2        1 NDP501  -1.0000
    49 H5B1         6.3058    52.4154    24.2170 H            1 NDP501   0.0000
    50 H5B2         7.4615    51.4915    24.9080 H            1 NDP501   0.0000
    51 H4B          6.0831    49.5933    24.6614 H            1 NDP501   0.0000
    52 H3B          4.5018    50.9389    22.9669 H            1 NDP501   0.0000
    53 H5           3.3963    48.8888    23.0550 H            1 NDP501   0.0000
    54 H2B          3.1823    51.9169    24.6391 H            1 NDP501   0.0000
    55 H1B          3.6762    49.5219    26.1967 H            1 NDP501   0.0000
    56 H8A          3.5945    53.2781    26.9531 H            1 NDP501   0.0000
    57 H6A1         0.5664    51.6290    32.0459 H            1 NDP501   0.0000
    58 H6A2         1.1187    52.9546    31.0776 H            1 NDP501   0.0000
    59 H2A          1.5848    47.8550    29.7659 H            1 NDP501   0.0000
    60 H5D1        11.3040    50.2242    24.0138 H            1 NDP501   0.0000
    61 H5D2         9.8888    50.7148    24.6645 H            1 NDP501   0.0000
    62 H4D         11.5428    50.7360    26.3594 H            1 NDP501   0.0000
    63 H3D         10.1064    52.9643    25.9132 H            1 NDP501   0.0000
    64 H16          9.9862    52.7149    28.0056 H            1 NDP501   0.0000
    65 H2D         11.7696    54.2097    25.0318 H            1 NDP501   0.0000
    66 H18         12.8020    55.5180    26.6022 H            1 NDP501   0.0000
    67 H1D         13.7256    52.8932    26.6720 H            1 NDP501   0.0000
    68 H2N         13.2438    53.1180    23.1274 H            1 NDP501   0.0000
    69 H7N1        13.4739    53.8605    19.6362 H            1 NDP501   0.0000
    70 H7N2        12.8268    53.4699    21.1946 H            1 NDP501   0.0000
    71 H4N         16.8777    55.2000    22.5419 H            1 NDP501   0.0000
    72 H5N         17.1695    55.1053    25.0510 H            1 NDP501   0.0000
    73 H6N         15.5592    54.0130    26.3630 H            1 NDP501   0.0000
@<TRIPOS>BOND
     1    1    2      ar
     2    1    3      ar
     3    1    4       1
     4    1   23       1
     5    4    5       1
     6    5    6       1
     7    6    7       1
     8    6    8       1
     9    7   12       1
    10    8    9       1
    11    8   10       1
    12   10   11       1
    13   10   12       1
    14   11   45       1
    15   12   13       1
    16   13   14       1
    17   13   22       1
    18   14   15       2
    19   15   16       1
    20   16   17      ar
    21   16   22      ar
    22   17   18       1
    23   17   19      ar
    24   19   20      ar
    25   20   21      ar
    26   21   22      ar
    27   23   24       1
    28   24   25      ar
    29   24   26      ar
    30   24   27       1
    31   27   28       1
    32   28   29       1
    33   29   30       1
    34   29   31       1
    35   30   35       1
    36   31   32       1
    37   31   33       1
    38   33   34       1
    39   33   35       1
    40   35   36       1
    41   36   37      ar
    42   36   44      ar
    43   37   38      ar
    44   38   39       1
    45   38   42      ar
    46   39   40       2
    47   39   41      am
    48   42   43      ar
    49   43   44      ar
    50   45   46      ar
    51   45   47      ar
    52   45   48      ar
    53   43   72       1
    54    5   49       1
    55    5   50       1
    56    6   51       1
    57    8   52       1
    58    9   53       1
    59   10   54       1
    60   12   55       1
    61   14   56       1
    62   18   57       1
    63   18   58       1
    64   20   59       1
    65   44   73       1
    66   28   60       1
    67   28   61       1
    68   29   62       1
    69   31   63       1
    70   32   64       1
    71   33   65       1
    72   34   66       1
    73   35   67       1
    74   37   68       1
    75   41   69       1
    76   41   70       1
    77   42   71       1
@<TRIPOS>SUBSTRUCTURE
     1 NDP501      1 GROUP             4 B     NDP     0 **** NDP B 501
