@<TRIPOS>MOLECULE
5ex0_SAH_1_ligand
   46    48     1     0     0
SMALL
NO_CHARGES


@<TRIPOS>ATOM
     1 N           29.1320     2.7370     5.9830 N.4          1 SAH504   1.0000
     2 CA          28.2990     2.0180     6.9380 C.3          1 SAH504   0.0000
     3 CB          27.9750     0.6170     6.4260 C.3          1 SAH504   0.0000
     4 CG          27.0080     0.6110     5.2460 C.3          1 SAH504   0.0000
     5 SD          25.3660     1.2370     5.7080 S.3          1 SAH504   0.0000
     6 C           28.9250     1.9700     8.3290 C.2          1 SAH504   0.0000
     7 O           30.0370     2.4570     8.5550 O.co2        1 SAH504   0.0000
     8 OXT         28.3230     1.4400     9.2650 O.co2        1 SAH504  -1.0000
     9 C5'         25.2890     2.3320     4.2710 C.3          1 SAH504   0.0000
    10 C4'         25.9960     3.6520     4.5240 C.3          1 SAH504   0.0000
    11 O4'         27.3720     3.5040     4.2380 O.3          1 SAH504   0.0000
    12 C3'         25.4610     4.7620     3.6370 C.3          1 SAH504   0.0000
    13 O3'         24.6270     5.6260     4.3660 O.3          1 SAH504   0.0000
    14 C2'         26.6910     5.5040     3.1820 C.3          1 SAH504   0.0000
    15 O2'         26.9180     6.5980     4.0420 O.3          1 SAH504   0.0000
    16 C1'         27.8170     4.5110     3.3610 C.3          1 SAH504   0.0000
    17 N9          28.1390     3.8740     2.0760 N.pl3        1 SAH504   0.0000
    18 C8          27.6030     2.7060     1.6020 C.2          1 SAH504   0.0000
    19 N7          28.1410     2.4390     0.3910 N.2          1 SAH504   0.0000
    20 C5          29.0070     3.4250     0.0800 C.ar         1 SAH504   0.0000
    21 C6          29.8160     3.6410    -1.0270 C.ar         1 SAH504   0.0000
    22 N6          29.8130     2.7780    -2.0370 N.pl3        1 SAH504   0.0000
    23 N1          30.6170     4.7610    -1.0760 N.ar         1 SAH504   0.0000
    24 C2          30.6130     5.6560    -0.0250 C.ar         1 SAH504   0.0000
    25 N3          29.8090     5.4360     1.0740 N.ar         1 SAH504   0.0000
    26 C4          29.0180     4.3350     1.1310 C.ar         1 SAH504   0.0000
    27 H1          28.5491     3.2351     5.3410 H            1 SAH504   0.0000
    28 H2          29.7177     3.3834     6.4720 H            1 SAH504   0.0000
    29 HA          27.4350     2.5155     7.0156 H            1 SAH504   0.0000
    30 HB1         27.5662     0.0932     7.1733 H            1 SAH504   0.0000
    31 HB2         28.8273     0.1794     6.1395 H            1 SAH504   0.0000
    32 HG1         26.9135    -0.3264     4.9108 H            1 SAH504   0.0000
    33 HG2         27.3811     1.1886     4.5199 H            1 SAH504   0.0000
    34 H5'1        24.3298     2.5154     4.0557 H            1 SAH504   0.0000
    35 H5'2        25.7237     1.8765     3.4942 H            1 SAH504   0.0000
    36 H4'         25.8826     3.9104     5.4834 H            1 SAH504   0.0000
    37 H3'         24.9714     4.3799     2.8532 H            1 SAH504   0.0000
    38 H12         24.2866     6.3479     3.7634 H            1 SAH504   0.0000
    39 H2'         26.6099     5.7978     2.2296 H            1 SAH504   0.0000
    40 H14         26.1283     7.2109     4.0172 H            1 SAH504   0.0000
    41 H1'         28.6250     4.9657     3.7355 H            1 SAH504   0.0000
    42 H16         26.9248     2.1431     2.0744 H            1 SAH504   0.0000
    43 H17         30.3974     2.9375    -2.8326 H            1 SAH504   0.0000
    44 H18         29.2263     1.9689    -2.0016 H            1 SAH504   0.0000
    45 H19         31.1958     6.4678    -0.0606 H            1 SAH504   0.0000
    46 H20         29.7009     2.0860     5.4805 H            1 SAH504   0.0000
@<TRIPOS>BOND
     1    1    2       1
     2    2    3       1
     3    2    6       1
     4    3    4       1
     5    4    5       1
     6    5    9       1
     7    6    7      ar
     8    6    8      ar
     9    9   10       1
    10   10   11       1
    11   10   12       1
    12   11   16       1
    13   12   13       1
    14   12   14       1
    15   14   15       1
    16   14   16       1
    17   16   17       1
    18   17   18       1
    19   17   26       1
    20   18   19       2
    21   19   20       1
    22   20   21      ar
    23   20   26      ar
    24   21   22       1
    25   21   23      ar
    26   23   24      ar
    27   24   25      ar
    28   25   26      ar
    29    1   27       1
    30    1   28       1
    31    2   29       1
    32    3   30       1
    33    3   31       1
    34    4   32       1
    35    4   33       1
    36    1   46       1
    37    9   34       1
    38    9   35       1
    39   10   36       1
    40   12   37       1
    41   13   38       1
    42   14   39       1
    43   15   40       1
    44   16   41       1
    45   18   42       1
    46   22   43       1
    47   22   44       1
    48   24   45       1
@<TRIPOS>SUBSTRUCTURE
     1 SAH504      1 GROUP             4 A     SAH     0 **** SAH A 504
