@<TRIPOS>MOLECULE
3ec7_NAD_5_ligand
   70    74     1     0     0
SMALL
NO_CHARGES


@<TRIPOS>ATOM
     1 PA          70.0330    51.7710    41.2350 P.3          1 NAD400   0.0000
     2 O1A         70.2030    50.3050    41.1960 O.co2        1 NAD400   0.0000
     3 O2A         71.2910    52.4520    40.8620 O.co2        1 NAD400  -1.0000
     4 O5B         69.3750    52.3340    42.5580 O.3          1 NAD400   0.0000
     5 C5B         68.3890    51.5870    43.2070 C.3          1 NAD400   0.0000
     6 C4B         68.7810    51.6740    44.6820 C.3          1 NAD400   0.0000
     7 O4B         67.7050    51.3340    45.5250 O.3          1 NAD400   0.0000
     8 C3B         69.9470    50.7390    45.0020 C.3          1 NAD400   0.0000
     9 O3B         70.8960    51.5090    45.7110 O.3          1 NAD400   0.0000
    10 C2B         69.3190    49.6440    45.8520 C.3          1 NAD400   0.0000
    11 O2B         70.1380    49.1240    46.8740 O.3          1 NAD400   0.0000
    12 C1B         68.1840    50.4120    46.4840 C.3          1 NAD400   0.0000
    13 N9A         67.1280    49.5400    46.9730 N.pl3        1 NAD400   0.0000
    14 C8A         66.6050    48.3990    46.4010 C.2          1 NAD400   0.0000
    15 N7A         65.6310    47.9480    47.2320 N.2          1 NAD400   0.0000
    16 C5A         65.5620    48.7850    48.3000 C.ar         1 NAD400   0.0000
    17 C6A         64.7710    48.7960    49.4350 C.ar         1 NAD400   0.0000
    18 N6A         64.0700    47.7020    49.7210 N.pl3        1 NAD400   0.0000
    19 N1A         64.9230    49.8180    50.3670 N.ar         1 NAD400   0.0000
    20 C2A         65.8770    50.8130    50.1940 C.ar         1 NAD400   0.0000
    21 N3A         66.6600    50.7880    49.0610 N.ar         1 NAD400   0.0000
    22 C4A         66.5010    49.7920    48.1450 C.ar         1 NAD400   0.0000
    23 O3          68.8780    52.1820    40.1920 O.3          1 NAD400   0.0000
    24 PN          68.6540    53.6610    39.6020 P.3          1 NAD400   0.0000
    25 O1N         69.2590    53.6530    38.2500 O.co2        1 NAD400   0.0000
    26 O2N         68.9680    54.7010    40.6060 O.co2        1 NAD400  -1.0000
    27 O5D         67.0330    53.5740    39.5060 O.3          1 NAD400   0.0000
    28 C5D         66.2000    53.8520    40.5990 C.3          1 NAD400   0.0000
    29 C4D         64.8330    54.2170    40.0310 C.3          1 NAD400   0.0000
    30 O4D         64.8620    55.4460    39.3230 O.3          1 NAD400   0.0000
    31 C3D         64.3230    53.1320    39.0910 C.3          1 NAD400   0.0000
    32 O3D         62.9490    52.9700    39.4070 O.3          1 NAD400   0.0000
    33 C2D         64.5270    53.7050    37.6880 C.3          1 NAD400   0.0000
    34 O2D         63.5780    53.1770    36.7470 O.3          1 NAD400   0.0000
    35 C1D         64.4010    55.2100    37.9890 C.3          1 NAD400   0.0000
    36 N1N         65.1220    56.0860    37.0600 N.ar         1 NAD400   1.0000
    37 C2N         64.4060    57.0720    36.4220 C.ar         1 NAD400   0.0000
    38 C3N         65.0550    57.9230    35.5220 C.ar         1 NAD400   0.0000
    39 C7N         64.3260    59.0830    34.9410 C.2          1 NAD400   0.0000
    40 O7N         64.7973    59.6065    33.7165 O.2          1 NAD400   0.0000
    41 N7N         63.2858    59.5905    35.6340 N.am         1 NAD400   0.0000
    42 C4N         66.4350    57.8000    35.2960 C.ar         1 NAD400   0.0000
    43 C5N         67.1580    56.8050    35.9660 C.ar         1 NAD400   0.0000
    44 C6N         66.4770    55.9630    36.8600 C.ar         1 NAD400   0.0000
    45 H5B1        68.3952    50.6380    42.8917 H            1 NAD400   0.0000
    46 H5B2        67.4835    51.9830    43.0547 H            1 NAD400   0.0000
    47 H4B         69.0601    52.6129    44.8834 H            1 NAD400   0.0000
    48 H3B         70.3440    50.3610    44.1656 H            1 NAD400   0.0000
    49 H5          70.4801    51.8613    46.5494 H            1 NAD400   0.0000
    50 H2B         68.9671    48.9078    45.2739 H            1 NAD400   0.0000
    51 H7          70.3924    49.8583    47.5033 H            1 NAD400   0.0000
    52 H1B         68.5484    50.9277    47.2594 H            1 NAD400   0.0000
    53 H8A         66.8896    47.9827    45.5374 H            1 NAD400   0.0000
    54 H6A1        63.4889    47.6790    50.5345 H            1 NAD400   0.0000
    55 H6A2        64.1242    46.9027    49.1225 H            1 NAD400   0.0000
    56 H2A         65.9929    51.5329    50.8783 H            1 NAD400   0.0000
    57 H5D1        66.5688    54.6172    41.1268 H            1 NAD400   0.0000
    58 H5D2        66.1243    53.0470    41.1874 H            1 NAD400   0.0000
    59 H4D         64.1887    54.3052    40.7906 H            1 NAD400   0.0000
    60 H3D         64.8281    52.2775    39.2126 H            1 NAD400   0.0000
    61 H17         62.5526    52.2649    38.8190 H            1 NAD400   0.0000
    62 H2D         65.4553    53.5029    37.3759 H            1 NAD400   0.0000
    63 H19         62.7654    53.7596    36.7305 H            1 NAD400   0.0000
    64 H1D         63.4314    55.4517    37.9508 H            1 NAD400   0.0000
    65 H2N         63.4280    57.1795    36.6006 H            1 NAD400   0.0000
    66 H7N1        62.8142    60.4072    35.3014 H            1 NAD400   0.0000
    67 H7N2        62.9862    59.1499    36.4803 H            1 NAD400   0.0000
    68 H4N         66.8985    58.4183    34.6613 H            1 NAD400   0.0000
    69 H5N         68.1399    56.6963    35.8108 H            1 NAD400   0.0000
    70 H6N         66.9860    55.2621    37.3597 H            1 NAD400   0.0000
@<TRIPOS>BOND
     1    1    2      ar
     2    1    3      ar
     3    1    4       1
     4    1   23       1
     5    4    5       1
     6    5    6       1
     7    6    7       1
     8    6    8       1
     9    7   12       1
    10    8    9       1
    11    8   10       1
    12   10   11       1
    13   10   12       1
    14   12   13       1
    15   13   14       1
    16   13   22       1
    17   14   15       2
    18   15   16       1
    19   16   17      ar
    20   16   22      ar
    21   17   18       1
    22   17   19      ar
    23   19   20      ar
    24   20   21      ar
    25   21   22      ar
    26   23   24       1
    27   24   25      ar
    28   24   26      ar
    29   24   27       1
    30   27   28       1
    31   28   29       1
    32   29   30       1
    33   29   31       1
    34   30   35       1
    35   31   32       1
    36   31   33       1
    37   33   34       1
    38   33   35       1
    39   35   36       1
    40   36   37      ar
    41   36   44      ar
    42   37   38      ar
    43   38   39       1
    44   38   42      ar
    45   39   40       2
    46   39   41      am
    47   42   43      ar
    48   43   44      ar
    49   44   70       1
    50    5   45       1
    51    5   46       1
    52    6   47       1
    53    8   48       1
    54    9   49       1
    55   10   50       1
    56   11   51       1
    57   12   52       1
    58   14   53       1
    59   18   54       1
    60   18   55       1
    61   20   56       1
    62   43   69       1
    63   28   57       1
    64   28   58       1
    65   29   59       1
    66   31   60       1
    67   32   61       1
    68   33   62       1
    69   34   63       1
    70   35   64       1
    71   37   65       1
    72   41   66       1
    73   41   67       1
    74   42   68       1
@<TRIPOS>SUBSTRUCTURE
     1 NAD400      1 GROUP             4 E     NAD     0 **** NAD E 400
