@<TRIPOS>MOLECULE
1tu8_GTX_3_ligand
   54    53     1     0     0
SMALL
NO_CHARGES


@<TRIPOS>ATOM
     1 N1          11.5050     2.5760    88.6000 N.4          1 GTX2004   1.0000
     2 CA1         12.2170     3.0560    87.4310 C.3          1 GTX2004   0.0000
     3 C1          13.5240     3.6410    87.8710 C.2          1 GTX2004   0.0000
     4 O11         13.6900     4.0870    89.0920 O.co2        1 GTX2004   0.0000
     5 O12         14.5200     3.7150    87.0260 O.co2        1 GTX2004  -1.0000
     6 CB1         11.3860     4.0990    86.6820 C.3          1 GTX2004   0.0000
     7 CG1         12.0150     4.5370    85.3590 C.3          1 GTX2004   0.0000
     8 CD1         11.1200     5.5400    84.6620 C.2          1 GTX2004   0.0000
     9 OE1          9.8800     5.8610    85.2070 O.2          1 GTX2004   0.0000
    10 N2          11.5960     6.0720    83.5450 N.am         1 GTX2004   0.0000
    11 CA2         10.9150     7.0890    82.7760 C.3          1 GTX2004   0.0000
    12 C2          10.8470     6.6760    81.3450 C.2          1 GTX2004   0.0000
    13 O2          11.9150     5.9750    80.7950 O.2          1 GTX2004   0.0000
    14 CB2         11.6790     8.4010    82.8650 C.3          1 GTX2004   0.0000
    15 SG2         11.6220     9.0320    84.5610 S.3          1 GTX2004   0.0000
    16 C1S         10.0100     9.8230    84.2850 C.3          1 GTX2004   0.0000
    17 C2S         10.1110    11.3410    84.1590 C.3          1 GTX2004   0.0000
    18 C3S         10.7870    11.8110    82.8680 C.3          1 GTX2004   0.0000
    19 C4S          9.8530    11.7410    81.6660 C.3          1 GTX2004   0.0000
    20 C5S         10.4610    12.4760    80.4730 C.3          1 GTX2004   0.0000
    21 C6S         10.2910    11.6990    79.1730 C.3          1 GTX2004   0.0000
    22 N3           9.7570     7.0020    80.6680 N.am         1 GTX2004   0.0000
    23 CA3          9.7370     6.9580    79.2160 C.3          1 GTX2004   0.0000
    24 C3           8.8890     5.8110    78.7200 C.2          1 GTX2004   0.0000
    25 O31          8.7460     5.6360    77.4350 O.co2        1 GTX2004   0.0000
    26 O32          8.2790     4.9840    79.5390 O.co2        1 GTX2004  -1.0000
    27 H1          10.6296     2.1826    88.3189 H            1 GTX2004   0.0000
    28 H2          12.0524     1.8768    89.0599 H            1 GTX2004   0.0000
    29 HA1         12.3960     2.2844    86.8206 H            1 GTX2004   0.0000
    30 HB11        11.2845     4.9037    87.2670 H            1 GTX2004   0.0000
    31 HB12        10.4848     3.7096    86.4915 H            1 GTX2004   0.0000
    32 HG11        12.1368     3.7378    84.7704 H            1 GTX2004   0.0000
    33 HG12        12.9045     4.9570    85.5391 H            1 GTX2004   0.0000
    34 H8          12.4825     5.7493    83.2133 H            1 GTX2004   0.0000
    35 HA2          9.9894     7.2153    83.1327 H            1 GTX2004   0.0000
    36 HB21        11.2634     9.0694    82.2482 H            1 GTX2004   0.0000
    37 HB22        12.6310     8.2492    82.5993 H            1 GTX2004   0.0000
    38 H1S1         9.4110     9.6053    85.0556 H            1 GTX2004   0.0000
    39 H1S2         9.6149     9.4578    83.4421 H            1 GTX2004   0.0000
    40 H2S1        10.6383    11.6873    84.9349 H            1 GTX2004   0.0000
    41 H2S2         9.1868    11.7218    84.1875 H            1 GTX2004   0.0000
    42 H3S1        11.5818    11.2303    82.6916 H            1 GTX2004   0.0000
    43 H3S2        11.0859    12.7577    82.9880 H            1 GTX2004   0.0000
    44 H4S1         8.9790    12.1650    81.9032 H            1 GTX2004   0.0000
    45 H4S2         9.7032    10.7831    81.4209 H            1 GTX2004   0.0000
    46 H5S1        11.4372    12.6123    80.6418 H            1 GTX2004   0.0000
    47 H5S2        10.0118    13.3644    80.3787 H            1 GTX2004   0.0000
    48 H6S1        10.7016    12.2141    78.4206 H            1 GTX2004   0.0000
    49 H6S2        10.7426    10.8105    79.2542 H            1 GTX2004   0.0000
    50 H6S3         9.3172    11.5626    78.9911 H            1 GTX2004   0.0000
    51 H25          8.9350     7.2828    81.1635 H            1 GTX2004   0.0000
    52 HA31        10.6716     6.8428    78.8796 H            1 GTX2004   0.0000
    53 HA32         9.3610     7.8168    78.8681 H            1 GTX2004   0.0000
    54 H28         11.3421     3.3377    89.2272 H            1 GTX2004   0.0000
@<TRIPOS>BOND
     1    1    2       1
     2    2    3       1
     3    2    6       1
     4    3    4      ar
     5    3    5      ar
     6    6    7       1
     7    7    8       1
     8    8    9       2
     9    8   10      am
    10   10   11       1
    11   11   12       1
    12   11   14       1
    13   12   13       2
    14   12   22      am
    15   14   15       1
    16   15   16       1
    17   16   17       1
    18   17   18       1
    19   18   19       1
    20   19   20       1
    21   20   21       1
    22   22   23       1
    23   23   24       1
    24   24   25      ar
    25   24   26      ar
    26    1   27       1
    27    1   28       1
    28    2   29       1
    29    1   54       1
    30    6   30       1
    31    6   31       1
    32    7   32       1
    33    7   33       1
    34   10   34       1
    35   11   35       1
    36   14   36       1
    37   14   37       1
    38   16   38       1
    39   16   39       1
    40   17   40       1
    41   17   41       1
    42   18   42       1
    43   18   43       1
    44   19   44       1
    45   19   45       1
    46   20   46       1
    47   20   47       1
    48   21   48       1
    49   21   49       1
    50   21   50       1
    51   22   51       1
    52   23   52       1
    53   23   53       1
@<TRIPOS>SUBSTRUCTURE
     1 GTX2004     1 GROUP             4 C     GTX     0 **** GTX C2004
