@<TRIPOS>MOLECULE
2msc_GDP_1_ligand
   40    42     1     0     0
SMALL
NO_CHARGES


@<TRIPOS>ATOM
     1 PB          20.5480    10.7440   -41.4520 P.3          1 GDP201   0.0000
     2 O1B         20.2110     9.3660   -40.9440 O.co2        1 GDP201   0.0000
     3 O2B         20.8140    10.6980   -42.9330 O.co2        1 GDP201  -1.0000
     4 O3B         19.3890    11.6730   -41.2040 O.co2        1 GDP201  -1.0000
     5 O3A         21.8440    11.3320   -40.6980 O.3          1 GDP201   0.0000
     6 PA          23.0340    10.3890   -40.1440 P.3          1 GDP201   0.0000
     7 O1A         23.7060     9.6410   -41.2660 O.co2        1 GDP201   0.0000
     8 O2A         22.5500     9.4300   -39.0840 O.co2        1 GDP201  -1.0000
     9 O5'         24.0460    11.4630   -39.5040 O.3          1 GDP201   0.0000
    10 C5'         24.2660    12.7030   -40.1770 C.3          1 GDP201   0.0000
    11 C4'         25.2590    13.5540   -39.4010 C.3          1 GDP201   0.0000
    12 O4'         24.6540    14.0780   -38.2140 O.3          1 GDP201   0.0000
    13 C3'         26.4930    12.7740   -38.9810 C.3          1 GDP201   0.0000
    14 O3'         27.6610    13.5370   -39.3060 O.3          1 GDP201   0.0000
    15 C2'         26.3120    12.5510   -37.4950 C.3          1 GDP201   0.0000
    16 O2'         27.5520    12.4960   -36.7820 O.3          1 GDP201   0.0000
    17 C1'         25.4280    13.7040   -37.0650 C.3          1 GDP201   0.0000
    18 N9          24.5450    13.3240   -35.9370 N.pl3        1 GDP201   0.0000
    19 C8          23.5470    12.4190   -35.9410 C.2          1 GDP201   0.0000
    20 N7          22.9730    12.3500   -34.7120 N.2          1 GDP201   0.0000
    21 C5          23.6010    13.2270   -33.9120 C.2          1 GDP201   0.0000
    22 C6          23.5140    13.6700   -32.4950 C.2          1 GDP201   0.0000
    23 O6          22.6610    13.1810   -31.7300 O.2          1 GDP201   0.0000
    24 N1          24.3750    14.6090   -32.0660 N.pl3        1 GDP201   0.0000
    25 C2          25.3080    15.1650   -32.8630 C.2          1 GDP201   0.0000
    26 N2          26.1410    16.1090   -32.3530 N.pl3        1 GDP201   0.0000
    27 N3          25.4490    14.8040   -34.1690 N.2          1 GDP201   0.0000
    28 C4          24.6420    13.8620   -34.7280 C.2          1 GDP201   0.0000
    29 H5'1        23.3989    13.1952   -40.2541 H            1 GDP201   0.0000
    30 H5'2        24.6293    12.5226   -41.0910 H            1 GDP201   0.0000
    31 H4'         25.5450    14.3186   -39.9786 H            1 GDP201   0.0000
    32 H3'         26.5178    11.8946   -39.4565 H            1 GDP201   0.0000
    33 H5          28.4778    13.0292   -39.0321 H            1 GDP201   0.0000
    34 H2'         25.8180    11.6931   -37.3535 H            1 GDP201   0.0000
    35 H7          27.6376    11.6080   -36.3302 H            1 GDP201   0.0000
    36 H1'         26.0023    14.4748   -36.7891 H            1 GDP201   0.0000
    37 H9          23.2691    11.8767   -36.7339 H            1 GDP201   0.0000
    38 H10         24.3205    14.9080   -31.1133 H            1 GDP201   0.0000
    39 H11         26.8373    16.5286   -32.9353 H            1 GDP201   0.0000
    40 H12         26.0579    16.3844   -31.3953 H            1 GDP201   0.0000
@<TRIPOS>BOND
     1    1    2      ar
     2    1    3      ar
     3    1    4      ar
     4    1    5       1
     5    5    6       1
     6    6    7      ar
     7    6    8      ar
     8    6    9       1
     9    9   10       1
    10   10   11       1
    11   11   12       1
    12   11   13       1
    13   12   17       1
    14   13   14       1
    15   13   15       1
    16   15   16       1
    17   15   17       1
    18   17   18       1
    19   18   19       1
    20   18   28       1
    21   19   20       2
    22   20   21       1
    23   21   22       1
    24   21   28       2
    25   22   23       2
    26   22   24       1
    27   24   25       1
    28   25   26       1
    29   25   27       2
    30   27   28       1
    31   26   40       1
    32   26   39       1
    33   24   38       1
    34   10   29       1
    35   10   30       1
    36   11   31       1
    37   13   32       1
    38   14   33       1
    39   15   34       1
    40   16   35       1
    41   17   36       1
    42   19   37       1
@<TRIPOS>SUBSTRUCTURE
     1 GDP201      1 GROUP             4 B     GDP     0 **** GDP B 201
