@<TRIPOS>MOLECULE
4j6b_PLO_2_ligand
   55    58     1     0     0
SMALL
NO_CHARGES


@<TRIPOS>ATOM
     1 C1          13.9980    37.2290    12.8560 C.3          1 PLO503   0.0000
     2 C2          14.4690    38.4890    12.1220 C.3          1 PLO503   0.0000
     3 C3          14.7860    39.5960    13.1200 C.3          1 PLO503   0.0000
     4 O3          15.0880    40.8170    12.4540 O.3          1 PLO503   0.0000
     5 C4          15.9590    39.1300    13.9730 C.3          1 PLO503   0.0000
     6 C5          15.5280    37.8860    14.7220 C.2          1 PLO503   0.0000
     7 C6          15.6590    37.8780    16.0720 C.2          1 PLO503   0.0000
     8 C7          15.2440    36.7360    16.9630 C.3          1 PLO503   0.0000
     9 C8          14.9380    35.4600    16.1850 C.3          1 PLO503   0.0000
    10 C9          14.2000    35.7500    14.8760 C.3          1 PLO503   0.0000
    11 C10         14.9660    36.7120    13.9370 C.3          1 PLO503   0.0000
    12 C11         13.8260    34.4210    14.2040 C.3          1 PLO503   0.0000
    13 C12         12.9830    33.4880    15.1030 C.3          1 PLO503   0.0000
    14 C13         13.6710    33.2390    16.4280 C.3          1 PLO503   0.0000
    15 C14         14.0270    34.5790    17.0330 C.3          1 PLO503   0.0000
    16 C15         14.4730    34.2290    18.4470 C.3          1 PLO503   0.0000
    17 C16         13.5360    33.0790    18.8540 C.3          1 PLO503   0.0000
    18 C17         12.8160    32.6420    17.5560 C.3          1 PLO503   0.0000
    19 C18         14.9030    32.3640    16.2310 C.3          1 PLO503   0.0000
    20 C19         16.1620    36.0120    13.2930 C.3          1 PLO503   0.0000
    21 C20         12.6310    31.1480    17.4830 C.2          1 PLO503   0.0000
    22 C21         13.5140    30.2260    18.2880 C.3          1 PLO503   0.0000
    23 O20         11.7580    30.7110    16.7640 O.2          1 PLO503   0.0000
    24 H1          13.8711    36.5038    12.1793 H            1 PLO503   0.0000
    25 H2          13.1225    37.4330    13.2941 H            1 PLO503   0.0000
    26 H3          13.7472    38.7995    11.5034 H            1 PLO503   0.0000
    27 H4          15.2912    38.2753    11.5944 H            1 PLO503   0.0000
    28 H5          13.9916    39.7370    13.7107 H            1 PLO503   0.0000
    29 H6          14.2470    41.3419    12.3226 H            1 PLO503   0.0000
    30 H7          16.2120    39.8468    14.6228 H            1 PLO503   0.0000
    31 H8          16.7419    38.9195    13.3875 H            1 PLO503   0.0000
    32 H9          16.0585    38.6856    16.5058 H            1 PLO503   0.0000
    33 H10         14.4245    37.0065    17.4682 H            1 PLO503   0.0000
    34 H11         15.9855    36.5475    17.6070 H            1 PLO503   0.0000
    35 H12         15.7894    34.9732    15.9899 H            1 PLO503   0.0000
    36 H13         13.3428    36.2035    15.1201 H            1 PLO503   0.0000
    37 H14         14.6692    33.9439    13.9561 H            1 PLO503   0.0000
    38 H15         13.3011    34.6218    13.3768 H            1 PLO503   0.0000
    39 H16         12.8513    32.6145    14.6343 H            1 PLO503   0.0000
    40 H17         12.0937    33.9132    15.2717 H            1 PLO503   0.0000
    41 H18         13.1662    35.0790    17.1283 H            1 PLO503   0.0000
    42 H19         14.3627    35.0119    19.0593 H            1 PLO503   0.0000
    43 H20         15.4275    33.9308    18.4558 H            1 PLO503   0.0000
    44 H21         12.8715    33.3945    19.5314 H            1 PLO503   0.0000
    45 H22         14.0628    32.3182    19.2330 H            1 PLO503   0.0000
    46 H23         11.9146    33.0743    17.5329 H            1 PLO503   0.0000
    47 H24         15.3461    32.2086    17.1139 H            1 PLO503   0.0000
    48 H25         14.6292    31.4869    15.8364 H            1 PLO503   0.0000
    49 H26         15.5421    32.8224    15.6134 H            1 PLO503   0.0000
    50 H27         16.7798    35.6828    14.0071 H            1 PLO503   0.0000
    51 H28         15.8410    35.2380    12.7472 H            1 PLO503   0.0000
    52 H29         16.6479    36.6571    12.7033 H            1 PLO503   0.0000
    53 H30         13.2494    29.2770    18.1163 H            1 PLO503   0.0000
    54 H31         14.4680    30.3598    18.0198 H            1 PLO503   0.0000
    55 H32         13.4096    30.4302    19.2613 H            1 PLO503   0.0000
@<TRIPOS>BOND
     1    1    2       1
     2    1   11       1
     3    2    3       1
     4    3    4       1
     5    3    5       1
     6    5    6       1
     7    6    7       2
     8    6   11       1
     9    7    8       1
    10    8    9       1
    11    9   10       1
    12    9   15       1
    13   10   11       1
    14   10   12       1
    15   11   20       1
    16   12   13       1
    17   13   14       1
    18   14   15       1
    19   14   18       1
    20   14   19       1
    21   15   16       1
    22   16   17       1
    23   17   18       1
    24   18   21       1
    25   21   22       1
    26   21   23       2
    27    1   24       1
    28    1   25       1
    29    2   26       1
    30    2   27       1
    31    3   28       1
    32    4   29       1
    33    5   30       1
    34    5   31       1
    35    7   32       1
    36    8   33       1
    37    8   34       1
    38    9   35       1
    39   10   36       1
    40   12   37       1
    41   12   38       1
    42   13   39       1
    43   13   40       1
    44   15   41       1
    45   16   42       1
    46   16   43       1
    47   17   44       1
    48   17   45       1
    49   18   46       1
    50   19   47       1
    51   19   48       1
    52   19   49       1
    53   20   50       1
    54   20   51       1
    55   20   52       1
    56   22   53       1
    57   22   54       1
    58   22   55       1
@<TRIPOS>SUBSTRUCTURE
     1 PLO503      1 GROUP             4 B     PLO     0 **** PLO B 503
