@<TRIPOS>MOLECULE
2hqm_FAD_1_ligand
   84    89     1     0     0
SMALL
NO_CHARGES


@<TRIPOS>ATOM
     1 PA           6.1900    21.8680   -16.2830 P.3          1 FAD1001   0.0000
     2 O1A          6.7720    22.1250   -14.9440 O.co2        1 FAD1001   0.0000
     3 O2A          7.0680    21.6360   -17.4540 O.co2        1 FAD1001  -1.0000
     4 O5B          5.2370    20.5850   -16.0900 O.3          1 FAD1001   0.0000
     5 C5B          4.3940    20.1880   -17.1750 C.3          1 FAD1001   0.0000
     6 C4B          3.9110    18.7520   -16.9560 C.3          1 FAD1001   0.0000
     7 O4B          2.9140    18.4560   -17.9470 O.3          1 FAD1001   0.0000
     8 C3B          5.0470    17.7480   -17.1550 C.3          1 FAD1001   0.0000
     9 O3B          5.1920    16.9370   -15.9860 O.3          1 FAD1001   0.0000
    10 C2B          4.5760    16.9340   -18.3660 C.3          1 FAD1001   0.0000
    11 O2B          4.9280    15.5600   -18.1710 O.3          1 FAD1001   0.0000
    12 C1B          3.0550    17.0640   -18.2460 C.3          1 FAD1001   0.0000
    13 N9A          2.2460    16.7840   -19.4610 N.pl3        1 FAD1001   0.0000
    14 C8A          2.4060    17.3700   -20.6450 C.2          1 FAD1001   0.0000
    15 N7A          1.4570    16.9600   -21.4820 N.2          1 FAD1001   0.0000
    16 C5A          0.6860    16.0970   -20.8240 C.ar         1 FAD1001   0.0000
    17 C6A         -0.4380    15.3530   -21.1730 C.ar         1 FAD1001   0.0000
    18 N6A         -0.9370    15.4470   -22.4000 N.pl3        1 FAD1001   0.0000
    19 N1A         -1.0010    14.5500   -20.2600 N.ar         1 FAD1001   0.0000
    20 C2A         -0.5020    14.4670   -19.0390 C.ar         1 FAD1001   0.0000
    21 N3A          0.5620    15.1620   -18.6810 N.ar         1 FAD1001   0.0000
    22 C4A          1.1840    15.9840   -19.5410 C.ar         1 FAD1001   0.0000
    23 N1          12.7750    27.8600   -13.1620 N.2          1 FAD1001   0.0000
    24 C2          13.0740    28.5010   -11.9520 C.2          1 FAD1001   0.0000
    25 O2          12.2330    29.2380   -11.4440 O.2          1 FAD1001   0.0000
    26 N3          14.3230    28.3020   -11.3410 N.pl3        1 FAD1001   0.0000
    27 C4          15.2750    27.4680   -11.9340 C.2          1 FAD1001   0.0000
    28 O4          16.3570    27.2960   -11.3850 O.2          1 FAD1001   0.0000
    29 C4X         14.9840    26.8270   -13.1290 C.2          1 FAD1001   0.0000
    30 N5          15.9310    26.0100   -13.7530 N.2          1 FAD1001   0.0000
    31 C5X         15.6140    25.3430   -14.9400 C.ar         1 FAD1001   0.0000
    32 C6          16.5420    24.4890   -15.5240 C.ar         1 FAD1001   0.0000
    33 C7          16.1910    23.7760   -16.6670 C.ar         1 FAD1001   0.0000
    34 C7M         17.2090    22.8260   -17.3070 C.3          1 FAD1001   0.0000
    35 C8          14.9250    23.9110   -17.2330 C.ar         1 FAD1001   0.0000
    36 C8M         14.5430    23.1190   -18.4880 C.3          1 FAD1001   0.0000
    37 C9          14.0060    24.7740   -16.6480 C.ar         1 FAD1001   0.0000
    38 C9A         14.3600    25.4890   -15.5120 C.ar         1 FAD1001   0.0000
    39 N10         13.4400    26.3680   -14.9270 N.pl3        1 FAD1001   0.0000
    40 C10         13.7440    27.0210   -13.7300 C.2          1 FAD1001   0.0000
    41 C1'         12.1110    26.5830   -15.5500 C.3          1 FAD1001   0.0000
    42 C2'         11.0040    25.7540   -14.8980 C.3          1 FAD1001   0.0000
    43 O2'         11.3630    24.3710   -14.8940 O.3          1 FAD1001   0.0000
    44 C3'          9.6770    25.9450   -15.6360 C.3          1 FAD1001   0.0000
    45 O3'          9.3920    27.3220   -15.8400 O.3          1 FAD1001   0.0000
    46 C4'          8.5400    25.2330   -14.9200 C.3          1 FAD1001   0.0000
    47 O4'          8.8290    23.8530   -14.7500 O.3          1 FAD1001   0.0000
    48 C5'          7.1930    25.4230   -15.6160 C.3          1 FAD1001   0.0000
    49 O5'          6.1620    24.6190   -15.0230 O.3          1 FAD1001   0.0000
    50 P            4.7980    24.3180   -15.8440 P.3          1 FAD1001   0.0000
    51 O1P          3.7580    23.9350   -14.8530 O.co2        1 FAD1001   0.0000
    52 O2P          4.5490    25.4380   -16.7790 O.co2        1 FAD1001  -1.0000
    53 O3P          5.1740    23.0320   -16.7420 O.3          1 FAD1001   0.0000
    54 H5B1         4.9084    20.2386   -18.0311 H            1 FAD1001   0.0000
    55 H5B2         3.6048    20.8002   -17.2237 H            1 FAD1001   0.0000
    56 H4B          3.5236    18.6556   -16.0391 H            1 FAD1001   0.0000
    57 H3B          5.9027    18.2223   -17.3619 H            1 FAD1001   0.0000
    58 H5           4.3402    16.4412   -15.8165 H            1 FAD1001   0.0000
    59 H2B          4.9236    17.2985   -19.2299 H            1 FAD1001   0.0000
    60 H7           4.4860    15.2171   -17.3421 H            1 FAD1001   0.0000
    61 H1B          2.7236    16.5138   -17.4796 H            1 FAD1001   0.0000
    62 H8A          3.1307    18.0208   -20.8714 H            1 FAD1001   0.0000
    63 H6A1        -1.7442    14.9140   -22.6537 H            1 FAD1001   0.0000
    64 H6A2        -0.5056    16.0508   -23.0703 H            1 FAD1001   0.0000
    65 H2A         -0.9399    13.8646   -18.3716 H            1 FAD1001   0.0000
    66 H13         14.5323    28.7596   -10.4768 H            1 FAD1001   0.0000
    67 H14         17.4540    24.3876   -15.1266 H            1 FAD1001   0.0000
    68 H7M1        16.8024    22.3955   -18.1128 H            1 FAD1001   0.0000
    69 H7M2        18.0213    23.3419   -17.5789 H            1 FAD1001   0.0000
    70 H7M3        17.4675    22.1207   -16.6470 H            1 FAD1001   0.0000
    71 H8M1        13.6036    23.3411   -18.7492 H            1 FAD1001   0.0000
    72 H8M2        15.1625    23.3594   -19.2353 H            1 FAD1001   0.0000
    73 H8M3        14.6136    22.1397   -18.2985 H            1 FAD1001   0.0000
    74 H21         13.0937    24.8794   -17.0437 H            1 FAD1001   0.0000
    75 H1'1        12.1683    26.3338   -16.5168 H            1 FAD1001   0.0000
    76 H1'2        11.8739    27.5511   -15.4688 H            1 FAD1001   0.0000
    77 H2'         10.8910    26.0582   -13.9521 H            1 FAD1001   0.0000
    78 H25         10.5355    23.8117   -14.9433 H            1 FAD1001   0.0000
    79 H3'          9.7731    25.5230   -16.5375 H            1 FAD1001   0.0000
    80 H27          8.8565    27.4311   -16.6774 H            1 FAD1001   0.0000
    81 H4'          8.4636    25.6359   -14.0080 H            1 FAD1001   0.0000
    82 H29          8.1310    23.3068   -15.2130 H            1 FAD1001   0.0000
    83 H5'1         7.2881    25.1676   -16.5781 H            1 FAD1001   0.0000
    84 H5'2         6.9292    26.3854   -15.5511 H            1 FAD1001   0.0000
@<TRIPOS>BOND
     1    1    2      ar
     2    1    3      ar
     3    1    4       1
     4    1   53       1
     5    4    5       1
     6    5    6       1
     7    6    7       1
     8    6    8       1
     9    7   12       1
    10    8    9       1
    11    8   10       1
    12   10   11       1
    13   10   12       1
    14   12   13       1
    15   13   14       1
    16   13   22       1
    17   14   15       2
    18   15   16       1
    19   16   17      ar
    20   16   22      ar
    21   17   18       1
    22   17   19      ar
    23   19   20      ar
    24   20   21      ar
    25   21   22      ar
    26   23   24       1
    27   23   40       2
    28   24   25       2
    29   24   26       1
    30   26   27       1
    31   27   28       2
    32   27   29       1
    33   29   30       2
    34   29   40       1
    35   30   31       1
    36   31   32      ar
    37   31   38      ar
    38   32   33      ar
    39   33   34       1
    40   33   35      ar
    41   35   36       1
    42   35   37      ar
    43   37   38      ar
    44   38   39       1
    45   39   40       1
    46   39   41       1
    47   41   42       1
    48   42   43       1
    49   42   44       1
    50   44   45       1
    51   44   46       1
    52   46   47       1
    53   46   48       1
    54   48   49       1
    55   49   50       1
    56   50   51      ar
    57   50   52      ar
    58   50   53       1
    59   48   84       1
    60    5   54       1
    61    5   55       1
    62    6   56       1
    63    8   57       1
    64    9   58       1
    65   10   59       1
    66   11   60       1
    67   12   61       1
    68   14   62       1
    69   18   63       1
    70   18   64       1
    71   20   65       1
    72   26   66       1
    73   32   67       1
    74   34   68       1
    75   34   69       1
    76   34   70       1
    77   36   71       1
    78   36   72       1
    79   36   73       1
    80   37   74       1
    81   41   75       1
    82   41   76       1
    83   42   77       1
    84   43   78       1
    85   44   79       1
    86   45   80       1
    87   46   81       1
    88   47   82       1
    89   48   83       1
@<TRIPOS>SUBSTRUCTURE
     1 FAD1001     1 GROUP             4 A     FAD     0 **** FAD A1001
