@<TRIPOS>MOLECULE
5far_9MG_1_ligand
   19    20     1     0     0
SMALL
NO_CHARGES


@<TRIPOS>ATOM
     1 C1         -10.2930    96.2580     8.4890 C.3          1 9MG201   0.0000
     2 N2          -9.4720    96.2530     9.7260 N.pl3        1 9MG201   0.0000
     3 C3          -9.5450    95.3150    10.6890 C.2          1 9MG201   0.0000
     4 N4          -8.6700    95.5820    11.6890 N.2          1 9MG201   0.0000
     5 C5          -8.0240    96.7130    11.3690 C.2          1 9MG201   0.0000
     6 C6          -6.9700    97.5370    12.0030 C.2          1 9MG201   0.0000
     7 O7          -6.4580    97.1500    13.2040 O.2          1 9MG201   0.0000
     8 N8          -6.5490    98.6550    11.3510 N.2          1 9MG201   0.0000
     9 C9          -7.0760    99.0260    10.1400 C.2          1 9MG201   0.0000
    10 N10         -6.6090   100.1550     9.5400 N.pl3        1 9MG201   0.0000
    11 N11         -8.0480    98.2960     9.5110 N.pl3        1 9MG201   0.0000
    12 C12         -8.5520    97.1590    10.0680 C.2          1 9MG201   0.0000
    13 H1         -10.0551    97.0553     7.9342 H            1 9MG201   0.0000
    14 H2         -10.1148    95.4237     7.9673 H            1 9MG201   0.0000
    15 H3         -11.2621    96.2984     8.7323 H            1 9MG201   0.0000
    16 H4         -10.1614    94.5278    10.6691 H            1 9MG201   0.0000
    17 H5          -6.9804   100.4422     8.6571 H            1 9MG201   0.0000
    18 H6          -5.8945   100.6973     9.9821 H            1 9MG201   0.0000
    19 H7          -8.3953    98.6031     8.6250 H            1 9MG201   0.0000
@<TRIPOS>BOND
     1    1    2       1
     2    2    3       1
     3    2   12       1
     4    3    4       2
     5    4    5       1
     6    5    6       1
     7    5   12       2
     8    6    7       2
     9    6    8       1
    10    8    9       2
    11    9   10       1
    12    9   11       1
    13   11   12       1
    14    1   13       1
    15    1   14       1
    16    1   15       1
    17    3   16       1
    18   10   18       1
    19   10   17       1
    20   11   19       1
@<TRIPOS>SUBSTRUCTURE
     1 9MG201      1 GROUP             4 A     9MG     0 **** 9MG A 201
