@<TRIPOS>MOLECULE
3epo_MP5_1_ligand
   22    22     1     0     0
SMALL
NO_CHARGES


@<TRIPOS>ATOM
     1 C1          43.7450    43.9630     0.2710 C.ar         1 MP51001   0.0000
     2 C2          44.5810    43.6710     1.3400 C.ar         1 MP51001   0.0000
     3 C3          44.0530    45.0150    -0.7960 C.3          1 MP51001   0.0000
     4 N1          45.7320    44.3220     1.4830 N.pl3        1 MP51001   0.0000
     5 N2          44.2270    42.7310     2.2260 N.ar         1 MP51001   0.0000
     6 C4          43.0690    42.0700     2.0890 C.ar         1 MP51001   0.0000
     7 C5          42.6820    41.0000     3.1130 C.3          1 MP51001   0.0000
     8 N3          42.2460    42.3360     1.0640 N.ar         1 MP51001   0.0000
     9 C6          42.5550    43.2550     0.1670 C.ar         1 MP51001   0.0000
    10 O1          42.8560    45.4490    -1.4490 O.3          1 MP51001   0.0000
    11 P1          42.0830    46.7590    -0.9230 P.3          1 MP51001   0.0000
    12 O2          41.1950    46.5050     0.2400 O.co2        1 MP51001   0.0000
    13 O3          41.2660    47.3590    -2.1860 O.co2        1 MP51001  -1.0000
    14 O4          43.2140    47.8680    -0.5890 O.co2        1 MP51001  -1.0000
    15 H1          44.6714    44.6202    -1.4755 H            1 MP51001   0.0000
    16 H2          44.4925    45.8016    -0.3624 H            1 MP51001   0.0000
    17 H3          46.3335    44.1108     2.2535 H            1 MP51001   0.0000
    18 H4          45.9959    45.0226     0.8200 H            1 MP51001   0.0000
    19 H5          41.7962    40.6072     2.8660 H            1 MP51001   0.0000
    20 H6          43.3756    40.2797     3.1207 H            1 MP51001   0.0000
    21 H7          42.6214    41.4142     4.0212 H            1 MP51001   0.0000
    22 H8          41.9292    43.4417    -0.5903 H            1 MP51001   0.0000
@<TRIPOS>BOND
     1    1    2      ar
     2    1    3       1
     3    1    9      ar
     4    2    4       1
     5    2    5      ar
     6    3   10       1
     7    5    6      ar
     8    6    7       1
     9    6    8      ar
    10    8    9      ar
    11   10   11       1
    12   11   12      ar
    13   11   13      ar
    14   11   14      ar
    15    3   15       1
    16    3   16       1
    17    4   17       1
    18    4   18       1
    19    7   19       1
    20    7   20       1
    21    7   21       1
    22    9   22       1
@<TRIPOS>SUBSTRUCTURE
     1 MP51001     1 GROUP             4 A     MP5     0 **** MP5 A1001
