@<TRIPOS>MOLECULE
2dcn_ADP_4_ligand
   39    41     1     0     0
SMALL
NO_CHARGES


@<TRIPOS>ATOM
     1 PB          -2.2270    -2.9650   -17.6340 P.3          1 ADP3004   0.0000
     2 O1B         -3.5620    -2.9650   -18.3740 O.co2        1 ADP3004   0.0000
     3 O2B         -1.7790    -4.2970   -17.0420 O.co2        1 ADP3004  -1.0000
     4 O3B         -1.1150    -2.2180   -18.3510 O.co2        1 ADP3004  -1.0000
     5 PA          -2.7710    -0.4810   -16.4980 P.3          1 ADP3004   0.0000
     6 O1A         -4.0450    -0.2340   -17.2600 O.co2        1 ADP3004   0.0000
     7 O2A         -1.5040     0.1850   -16.9780 O.co2        1 ADP3004  -1.0000
     8 O3A         -2.4950    -2.0530   -16.3400 O.3          1 ADP3004   0.0000
     9 O5'         -3.0710    -0.1650   -14.9490 O.3          1 ADP3004   0.0000
    10 C5'         -4.1520    -0.8020   -14.2750 C.3          1 ADP3004   0.0000
    11 C4'         -4.6270     0.1080   -13.1630 C.3          1 ADP3004   0.0000
    12 O4'         -3.5160     0.4080   -12.3140 O.3          1 ADP3004   0.0000
    13 C3'         -5.0930     1.4710   -13.6670 C.3          1 ADP3004   0.0000
    14 O3'         -6.4400     1.5000   -14.1540 O.3          1 ADP3004   0.0000
    15 C2'         -4.7920     2.3970   -12.4970 C.3          1 ADP3004   0.0000
    16 O2'         -5.8830     2.4550   -11.5740 O.3          1 ADP3004   0.0000
    17 C1'         -3.5520     1.7670   -11.8510 C.3          1 ADP3004   0.0000
    18 N9          -2.3650     2.5280   -12.3270 N.pl3        1 ADP3004   0.0000
    19 C8          -1.5110     2.1200   -13.2780 C.2          1 ADP3004   0.0000
    20 N7          -0.5570     3.0610   -13.5080 N.2          1 ADP3004   0.0000
    21 C5          -0.8060     4.1230   -12.6980 C.ar         1 ADP3004   0.0000
    22 C6          -0.1910     5.4510   -12.4280 C.ar         1 ADP3004   0.0000
    23 N6           0.9190     5.8720   -13.0700 N.pl3        1 ADP3004   0.0000
    24 N1          -0.7620     6.2520   -11.5010 N.ar         1 ADP3004   0.0000
    25 C2          -1.8690     5.8550   -10.8350 C.ar         1 ADP3004   0.0000
    26 N3          -2.4700     4.6600   -11.0320 N.ar         1 ADP3004   0.0000
    27 C4          -1.9990     3.7630   -11.9320 C.ar         1 ADP3004   0.0000
    28 H5'1        -3.8440    -1.6722   -13.8905 H            1 ADP3004   0.0000
    29 H5'2        -4.8998    -0.9677   -14.9180 H            1 ADP3004   0.0000
    30 H4'         -5.3543    -0.3352   -12.6389 H            1 ADP3004   0.0000
    31 H3'         -4.4932     1.7346   -14.4225 H            1 ADP3004   0.0000
    32 H5          -6.5211     2.1944   -14.8690 H            1 ADP3004   0.0000
    33 H2'         -4.5763     3.3143   -12.8317 H            1 ADP3004   0.0000
    34 H7          -6.0631     1.5400   -11.2129 H            1 ADP3004   0.0000
    35 H1'         -3.6170     1.7997   -10.8537 H            1 ADP3004   0.0000
    36 H9          -1.5684     1.2422   -13.7535 H            1 ADP3004   0.0000
    37 H10          1.3054     6.7709   -12.8635 H            1 ADP3004   0.0000
    38 H11          1.3550     5.2850   -13.7522 H            1 ADP3004   0.0000
    39 H12         -2.2647     6.4783   -10.1605 H            1 ADP3004   0.0000
@<TRIPOS>BOND
     1    1    2      ar
     2    1    3      ar
     3    1    4      ar
     4    1    8       1
     5    5    6      ar
     6    5    7      ar
     7    5    8       1
     8    5    9       1
     9    9   10       1
    10   10   11       1
    11   11   12       1
    12   11   13       1
    13   12   17       1
    14   13   14       1
    15   13   15       1
    16   15   16       1
    17   15   17       1
    18   17   18       1
    19   18   19       1
    20   18   27       1
    21   19   20       2
    22   20   21       1
    23   21   22      ar
    24   21   27      ar
    25   22   23       1
    26   22   24      ar
    27   24   25      ar
    28   25   26      ar
    29   26   27      ar
    30   25   39       1
    31   23   38       1
    32   23   37       1
    33   10   28       1
    34   10   29       1
    35   11   30       1
    36   13   31       1
    37   14   32       1
    38   15   33       1
    39   16   34       1
    40   17   35       1
    41   19   36       1
@<TRIPOS>SUBSTRUCTURE
     1 ADP3004     1 GROUP             4 D     ADP     0 **** ADP D3004
