@<TRIPOS>MOLECULE
2yim_MC4_3_ligand
   93    95     1     0     0
SMALL
NO_CHARGES


@<TRIPOS>ATOM
     1 C1         123.6320    27.1890    48.3760 C.2          1 MC41363   0.0000
     2 O1         123.7840    28.4130    48.3480 O.2          1 MC41363   0.0000
     3 C2         124.6510    26.3710    48.9050 C.2          1 MC41363   0.0000
     4 C3         124.5500    24.8350    48.9930 C.2          1 MC41363   0.0000
     5 O3         125.6560    24.1800    49.4460 O.3          1 MC41363   0.0000
     6 C4         123.4160    24.1190    48.6350 C.3          1 MC41363   0.0000
     7 N1A        110.4720    16.5550    37.5290 N.ar         1 MC41363   0.0000
     8 O1A        116.8120    25.7300    38.4560 O.co2        1 MC41363   0.0000
     9 P1A        117.4860    25.0740    37.2740 P.3          1 MC41363   0.0000
    10 C1B        113.6740    20.4930    36.3280 C.3          1 MC41363   0.0000
    11 S1P        122.0960    26.5290    47.7970 S.3          1 MC41363   0.0000
    12 C2A        111.0280    16.8890    36.3400 C.ar         1 MC41363   0.0000
    13 O2A        118.0540    26.1780    36.1370 O.co2        1 MC41363  -1.0000
    14 P2A        120.2020    24.0870    37.5590 P.3          1 MC41363   0.0000
    15 C2B        113.0750    21.8270    35.9300 C.3          1 MC41363   0.0000
    16 O2B        111.9960    21.6760    35.0040 O.3          1 MC41363   0.0000
    17 C2P        121.4350    27.9480    46.8890 C.3          1 MC41363   0.0000
    18 N3A        111.8470    17.9480    36.1600 N.ar         1 MC41363   0.0000
    19 O3A        118.6100    24.0620    37.8390 O.3          1 MC41363   0.0000
    20 C3B        114.2680    22.5210    35.3100 C.3          1 MC41363   0.0000
    21 O3B        114.3810    22.1170    33.9440 O.3          1 MC41363   0.0000
    22 P3B        114.6340    23.1600    32.7410 P.3          1 MC41363   0.0000
    23 C3P        121.6580    27.8340    45.3850 C.3          1 MC41363   0.0000
    24 C4A        112.1570    18.7390    37.1990 C.ar         1 MC41363   0.0000
    25 O4A        120.5960    24.4890    35.9700 O.co2        1 MC41363   0.0000
    26 C4B        115.4450    21.9860    36.1170 C.3          1 MC41363   0.0000
    27 O4B        115.0060    20.7860    36.7570 O.3          1 MC41363   0.0000
    28 N4P        120.9810    28.8930    44.6540 N.am         1 MC41363   0.0000
    29 C52        125.9340    27.0460    49.4130 C.3          1 MC41363   0.0000
    30 C5A        111.5920    18.4340    38.5100 C.ar         1 MC41363   0.0000
    31 O5A        120.7570    22.7550    37.9870 O.co2        1 MC41363  -1.0000
    32 C5B        115.8940    22.9640    37.1960 C.3          1 MC41363   0.0000
    33 O5B        116.4390    24.1020    36.5430 O.3          1 MC41363   0.0000
    34 C5P        119.6540    28.9210    44.4960 C.2          1 MC41363   0.0000
    35 O5P        118.9040    28.0680    44.9550 O.2          1 MC41363   0.0000
    36 C6A        110.6950    17.2650    38.6510 C.ar         1 MC41363   0.0000
    37 N6A        110.1390    16.9230    39.8380 N.pl3        1 MC41363   0.0000
    38 O6A        120.7330    25.2440    38.5390 O.3          1 MC41363   0.0000
    39 C6P        119.1140    30.0990    43.7170 C.3          1 MC41363   0.0000
    40 N7A        112.0210    19.3360    39.3930 N.2          1 MC41363   0.0000
    41 O7A        113.6950    24.3400    32.8490 O.co2        1 MC41363   0.0000
    42 C7P        117.9950    29.6900    42.7570 C.3          1 MC41363   0.0000
    43 C8A        112.8180    20.1780    38.7000 C.2          1 MC41363   0.0000
    44 O8A        116.2470    23.6740    32.7940 O.co2        1 MC41363  -1.0000
    45 N8P        118.2910    28.4850    41.9930 N.am         1 MC41363   0.0000
    46 N9A        112.9010    19.8250    37.3960 N.pl3        1 MC41363   0.0000
    47 O9A        114.3580    22.3630    31.2680 O.co2        1 MC41363  -1.0000
    48 C9P        119.1560    28.4470    40.9730 C.2          1 MC41363   0.0000
    49 O9P        119.7710    29.4280    40.5770 O.2          1 MC41363   0.0000
    50 CAP        119.3360    27.1080    40.2950 C.3          1 MC41363   0.0000
    51 OAP        118.2260    26.2580    40.6400 O.3          1 MC41363   0.0000
    52 CBP        120.6700    26.4160    40.6400 C.3          1 MC41363   0.0000
    53 CCP        120.7030    25.0600    39.9520 C.3          1 MC41363   0.0000
    54 CDP        120.8000    26.1840    42.1390 C.3          1 MC41363   0.0000
    55 CEP        121.8580    27.2390    40.1520 C.3          1 MC41363   0.0000
    56 H1         125.6496    23.1831    49.5245 H            1 MC41363   0.0000
    57 H2         123.5803    23.1426    48.7748 H            1 MC41363   0.0000
    58 H3         122.6448    24.4115    49.2004 H            1 MC41363   0.0000
    59 H4         123.2059    24.2871    47.6719 H            1 MC41363   0.0000
    60 H1B        113.7104    19.8965    35.5262 H            1 MC41363   0.0000
    61 H2A        110.8195    16.3167    35.5469 H            1 MC41363   0.0000
    62 H2B        112.7680    22.3246    36.7413 H            1 MC41363   0.0000
    63 H8         111.9498    22.4805    34.4119 H            1 MC41363   0.0000
    64 H2P1       121.8860    28.7777    47.2181 H            1 MC41363   0.0000
    65 H2P2       120.4524    28.0110    47.0637 H            1 MC41363   0.0000
    66 H3B        114.1933    23.5149    35.3906 H            1 MC41363   0.0000
    67 H3P1       121.3081    26.9509    45.0724 H            1 MC41363   0.0000
    68 H3P2       122.6390    27.8888    45.1987 H            1 MC41363   0.0000
    69 H4B        116.2097    21.7828    35.5055 H            1 MC41363   0.0000
    70 H4P        121.5288    29.6280    44.2544 H            1 MC41363   0.0000
    71 H16        126.5633    26.3493    49.7574 H            1 MC41363   0.0000
    72 H17        126.3676    27.5451    48.6627 H            1 MC41363   0.0000
    73 H18        125.7064    27.6830    50.1495 H            1 MC41363   0.0000
    74 H5B1       116.5888    22.5376    37.7752 H            1 MC41363   0.0000
    75 H5B2       115.1122    23.2348    37.7577 H            1 MC41363   0.0000
    76 H6A1       110.3245    17.4713    40.6535 H            1 MC41363   0.0000
    77 H6A2       109.5431    16.1222    39.8988 H            1 MC41363   0.0000
    78 H6P1       119.8596    30.5053    43.1888 H            1 MC41363   0.0000
    79 H6P2       118.7553    30.7745    44.3613 H            1 MC41363   0.0000
    80 H7P1       117.8395    30.4408    42.1150 H            1 MC41363   0.0000
    81 H7P2       117.1643    29.5298    43.2902 H            1 MC41363   0.0000
    82 H8A        113.2883    20.9644    39.1006 H            1 MC41363   0.0000
    83 H8P        117.8213    27.6390    42.2452 H            1 MC41363   0.0000
    84 HAP        119.3135    27.2579    39.3065 H            1 MC41363   0.0000
    85 H30        117.7411    25.9888    39.8079 H            1 MC41363   0.0000
    86 HCP1       121.5195    24.5599    40.2403 H            1 MC41363   0.0000
    87 HCP2       119.8871    24.5391    40.2029 H            1 MC41363   0.0000
    88 HDP1       121.6724    25.7351    42.3324 H            1 MC41363   0.0000
    89 HDP2       120.7638    27.0619    42.6165 H            1 MC41363   0.0000
    90 HDP3       120.0492    25.6027    42.4527 H            1 MC41363   0.0000
    91 HEP1       122.7085    26.7690    40.3879 H            1 MC41363   0.0000
    92 HEP2       121.8021    27.3490    39.1596 H            1 MC41363   0.0000
    93 HEP3       121.8421    28.1385    40.5885 H            1 MC41363   0.0000
@<TRIPOS>BOND
     1    1    2       2
     2    1    3       1
     3    1   11       1
     4    3    4       2
     5    3   29       1
     6    4    5       1
     7    4    6       1
     8    7   12      ar
     9    7   36      ar
    10    8    9      ar
    11    9   13      ar
    12    9   19       1
    13    9   33       1
    14   10   15       1
    15   10   27       1
    16   10   46       1
    17   11   17       1
    18   12   18      ar
    19   14   19       1
    20   14   25      ar
    21   14   31      ar
    22   14   38       1
    23   15   16       1
    24   15   20       1
    25   17   23       1
    26   18   24      ar
    27   20   21       1
    28   20   26       1
    29   21   22       1
    30   22   41      ar
    31   22   44      ar
    32   22   47      ar
    33   23   28       1
    34   24   30      ar
    35   24   46       1
    36   26   27       1
    37   26   32       1
    38   28   34      am
    39   30   36      ar
    40   30   40       1
    41   32   33       1
    42   34   35       2
    43   34   39       1
    44   36   37       1
    45   38   53       1
    46   39   42       1
    47   40   43       2
    48   42   45       1
    49   43   46       1
    50   45   48      am
    51   48   49       2
    52   48   50       1
    53   50   51       1
    54   50   52       1
    55   52   53       1
    56   52   54       1
    57   52   55       1
    58    5   56       1
    59    6   57       1
    60    6   58       1
    61    6   59       1
    62   10   60       1
    63   12   61       1
    64   55   93       1
    65   15   62       1
    66   16   63       1
    67   17   64       1
    68   17   65       1
    69   20   66       1
    70   23   67       1
    71   23   68       1
    72   55   92       1
    73   26   69       1
    74   28   70       1
    75   29   71       1
    76   29   72       1
    77   29   73       1
    78   32   74       1
    79   32   75       1
    80   37   76       1
    81   37   77       1
    82   39   78       1
    83   39   79       1
    84   42   80       1
    85   42   81       1
    86   43   82       1
    87   55   91       1
    88   45   83       1
    89   54   90       1
    90   50   84       1
    91   51   85       1
    92   53   86       1
    93   53   87       1
    94   54   88       1
    95   54   89       1
@<TRIPOS>SUBSTRUCTURE
     1 MC41363     1 GROUP             4 C     MC4     0 **** MC4 C1363
