@<TRIPOS>MOLECULE
4fl0_PLP_1_ligand
   24    24     1     0     0
SMALL
NO_CHARGES


@<TRIPOS>ATOM
     1 N1          14.4800   -68.3110   200.4270 N.ar         1 PLP501   1.0000
     2 C2          14.5920   -69.3750   199.6390 C.ar         1 PLP501   0.0000
     3 C2A         13.6280   -69.5900   198.5070 C.3          1 PLP501   0.0000
     4 C3          15.6430   -70.3020   199.8890 C.ar         1 PLP501   0.0000
     5 O3          15.8390   -71.3290   199.0960 O.3          1 PLP501  -1.0000
     6 C4          16.5440   -70.0480   200.9690 C.ar         1 PLP501   0.0000
     7 C4A         17.5240   -71.0150   201.3640 C.2          1 PLP501   0.0000
     8 O4A         17.1600   -72.1410   201.1520 O.2          1 PLP501   0.0000
     9 C5          16.3050   -68.9160   201.7900 C.ar         1 PLP501   0.0000
    10 C6          15.2820   -68.0840   201.4400 C.ar         1 PLP501   0.0000
    11 C5A         17.1940   -68.6170   202.9860 C.3          1 PLP501   0.0000
    12 O4P         16.8990   -69.3360   204.1780 O.3          1 PLP501   0.0000
    13 P           17.8210   -69.1510   205.4860 P.3          1 PLP501   0.0000
    14 O1P         18.9920   -70.1160   205.2070 O.co2        1 PLP501   0.0000
    15 O2P         16.8860   -69.4970   206.5780 O.co2        1 PLP501  -1.0000
    16 O3P         18.1270   -67.6790   205.5470 O.co2        1 PLP501  -1.0000
    17 H2A1        13.8625   -70.4344   198.0253 H            1 PLP501   0.0000
    18 H2A2        12.6986   -69.6601   198.8694 H            1 PLP501   0.0000
    19 H2A3        13.6812   -68.8186   197.8728 H            1 PLP501   0.0000
    20 H4A         18.4079   -70.7808   201.7689 H            1 PLP501   0.0000
    21 H5          15.1359   -67.2578   201.9842 H            1 PLP501   0.0000
    22 H5A1        17.1147   -67.6412   203.1898 H            1 PLP501   0.0000
    23 H5A2        18.1365   -68.8279   202.7269 H            1 PLP501   0.0000
    24 H8          13.7508   -67.6530   200.2392 H            1 PLP501   0.0000
@<TRIPOS>BOND
     1    1    2      ar
     2    1   10      ar
     3    2    3       1
     4    2    4      ar
     5    4    5       1
     6    4    6      ar
     7    6    7       1
     8    6    9      ar
     9    7    8       2
    10    9   10      ar
    11    9   11       1
    12   11   12       1
    13   12   13       1
    14   13   14      ar
    15   13   15      ar
    16   13   16      ar
    17    3   17       1
    18    3   18       1
    19    3   19       1
    20    1   24       1
    21    7   20       1
    22   10   21       1
    23   11   22       1
    24   11   23       1
@<TRIPOS>SUBSTRUCTURE
     1 PLP501      1 GROUP             4 A     PLP     0 **** PLP A 501
