@<TRIPOS>MOLECULE
1tzj_A3B_2_ligand
   14    13     1     0     0
SMALL
NO_CHARGES


@<TRIPOS>ATOM
     1 CAA         11.3080    34.1420   112.7600 C.2          1 A3B502   0.0000
     2 CAE         11.6280    33.3830   111.6360 C.2          1 A3B502   0.0000
     3 CAG         10.5120    32.7170   110.8300 C.3          1 A3B502   0.0000
     4 CAF         10.6460    31.2010   110.9370 C.2          1 A3B502   0.0000
     5 OAD          9.8070    30.6110   111.6520 O.co2        1 A3B502   0.0000
     6 OAC         11.5750    30.6680   110.2910 O.co2        1 A3B502  -1.0000
     7 NAB         10.6040    33.0940   109.4120 N.4          1 A3B502   1.0000
     8 HAA1        12.0336    34.5798   113.2908 H            1 A3B502   0.0000
     9 HAA2        10.3527    34.2489   113.0358 H            1 A3B502   0.0000
    10 HAE         12.5824    33.2744   111.3579 H            1 A3B502   0.0000
    11 HAG          9.6242    32.9997   111.1932 H            1 A3B502   0.0000
    12 HAB1        11.1839    32.4376   108.9295 H            1 A3B502   0.0000
    13 HAB2         9.6899    33.0922   109.0066 H            1 A3B502   0.0000
    14 HAB3        11.0008    34.0087   109.3353 H            1 A3B502   0.0000
@<TRIPOS>BOND
     1    1    2       2
     2    2    3       1
     3    3    4       1
     4    3    7       1
     5    4    5      ar
     6    4    6      ar
     7    1    8       1
     8    1    9       1
     9    2   10       1
    10    3   11       1
    11    7   13       1
    12    7   12       1
    13    7   14       1
@<TRIPOS>SUBSTRUCTURE
     1 A3B502      1 GROUP             4 C     A3B     0 **** A3B C 502
