@<TRIPOS>MOLECULE
2hnk_SAH_3_ligand
   46    48     1     0     0
SMALL
NO_CHARGES


@<TRIPOS>ATOM
     1 N           66.4620   -29.8680    23.3400 N.4          1 SAH2003   1.0000
     2 CA          67.5280   -30.3550    22.4110 C.3          1 SAH2003   0.0000
     3 CB          67.0770   -31.6450    21.7250 C.3          1 SAH2003   0.0000
     4 CG          66.8660   -32.8220    22.6810 C.3          1 SAH2003   0.0000
     5 SD          67.2890   -34.3710    21.8550 S.3          1 SAH2003   0.0000
     6 C           67.9840   -29.3060    21.3830 C.2          1 SAH2003   0.0000
     7 O           68.9390   -29.5240    20.6310 O.co2        1 SAH2003   0.0000
     8 OXT         67.4190   -28.2190    21.2780 O.co2        1 SAH2003  -1.0000
     9 C5'         66.9310   -35.4140    23.2930 C.3          1 SAH2003   0.0000
    10 C4'         68.0320   -35.4780    24.3470 C.3          1 SAH2003   0.0000
    11 O4'         67.5110   -36.1050    25.5010 O.3          1 SAH2003   0.0000
    12 C3'         69.2350   -36.2940    23.9050 C.3          1 SAH2003   0.0000
    13 O3'         70.3940   -35.5140    24.0810 O.3          1 SAH2003   0.0000
    14 C2'         69.2960   -37.4940    24.8290 C.3          1 SAH2003   0.0000
    15 O2'         70.6250   -37.7430    25.2380 O.3          1 SAH2003   0.0000
    16 C1'         68.4280   -37.0570    26.0050 C.3          1 SAH2003   0.0000
    17 N9          67.7340   -38.1730    26.6860 N.pl3        1 SAH2003   0.0000
    18 C8          67.3260   -39.3820    26.1670 C.2          1 SAH2003   0.0000
    19 N7          66.7420   -40.1050    27.1550 N.2          1 SAH2003   0.0000
    20 C5          66.7650   -39.3760    28.2970 C.ar         1 SAH2003   0.0000
    21 C6          66.3140   -39.6180    29.5950 C.ar         1 SAH2003   0.0000
    22 N6          65.7200   -40.7630    29.9090 N.pl3        1 SAH2003   0.0000
    23 N1          66.4940   -38.6570    30.5730 N.ar         1 SAH2003   0.0000
    24 C2          67.1100   -37.4560    30.2710 C.ar         1 SAH2003   0.0000
    25 N3          67.5550   -37.2190    28.9840 N.ar         1 SAH2003   0.0000
    26 C4          67.3900   -38.1620    28.0150 C.ar         1 SAH2003   0.0000
    27 H1          66.6038   -30.2644    24.2471 H            1 SAH2003   0.0000
    28 H2          66.5037   -28.8708    23.4017 H            1 SAH2003   0.0000
    29 HA          68.3243   -30.5830    22.9712 H            1 SAH2003   0.0000
    30 HB1         67.7736   -31.9049    21.0562 H            1 SAH2003   0.0000
    31 HB2         66.2135   -31.4646    21.2540 H            1 SAH2003   0.0000
    32 HG1         65.9079   -32.8495    22.9661 H            1 SAH2003   0.0000
    33 HG2         67.4497   -32.7049    23.4845 H            1 SAH2003   0.0000
    34 H5'1        66.7635   -36.3438    22.9654 H            1 SAH2003   0.0000
    35 H5'2        66.1045   -35.0612    23.7316 H            1 SAH2003   0.0000
    36 H4'         68.3261   -34.5503    24.5770 H            1 SAH2003   0.0000
    37 H3'         69.1401   -36.5820    22.9521 H            1 SAH2003   0.0000
    38 H12         70.4858   -35.2662    25.0455 H            1 SAH2003   0.0000
    39 H2'         68.9070   -38.3010    24.3847 H            1 SAH2003   0.0000
    40 H14         70.8159   -37.2354    26.0782 H            1 SAH2003   0.0000
    41 H1'         69.0153   -36.6007    26.6735 H            1 SAH2003   0.0000
    42 H16         67.4413   -39.6777    25.2187 H            1 SAH2003   0.0000
    43 H17         65.4022   -40.9215    30.8438 H            1 SAH2003   0.0000
    44 H18         65.5903   -41.4670    29.2107 H            1 SAH2003   0.0000
    45 H19         67.2329   -36.7622    30.9806 H            1 SAH2003   0.0000
    46 H20         65.5657   -30.1432    22.9924 H            1 SAH2003   0.0000
@<TRIPOS>BOND
     1    1    2       1
     2    2    3       1
     3    2    6       1
     4    3    4       1
     5    4    5       1
     6    5    9       1
     7    6    7      ar
     8    6    8      ar
     9    9   10       1
    10   10   11       1
    11   10   12       1
    12   11   16       1
    13   12   13       1
    14   12   14       1
    15   14   15       1
    16   14   16       1
    17   16   17       1
    18   17   18       1
    19   17   26       1
    20   18   19       2
    21   19   20       1
    22   20   21      ar
    23   20   26      ar
    24   21   22       1
    25   21   23      ar
    26   23   24      ar
    27   24   25      ar
    28   25   26      ar
    29    1   27       1
    30    1   28       1
    31    2   29       1
    32    3   30       1
    33    3   31       1
    34    4   32       1
    35    4   33       1
    36    1   46       1
    37    9   34       1
    38    9   35       1
    39   10   36       1
    40   12   37       1
    41   13   38       1
    42   14   39       1
    43   15   40       1
    44   16   41       1
    45   18   42       1
    46   22   43       1
    47   22   44       1
    48   24   45       1
@<TRIPOS>SUBSTRUCTURE
     1 SAH2003     1 GROUP             4 C     SAH     0 **** SAH C2003
