@<TRIPOS>MOLECULE
./coach420/1g97/ligand.pdb
 39 40 0 0 0
SMALL
GASTEIGER

@<TRIPOS>ATOM
      1 MG         27.9910   10.6520  -19.7600 Mg    460  MG460       0.0000
      2  C2'       25.6220    9.8490  -25.2990 C.3   500  UD1500      0.0000
      3  C3'       26.7430   10.3920  -26.2000 C.3   500  UD1500      0.0000
      4  C4'       27.1220   11.7950  -25.7690 C.3   500  UD1500      0.0000
      5  C5'       27.4160   11.8870  -24.2550 C.3   500  UD1500      0.0000
      6  C6'       27.5900   13.3670  -23.8970 C.3   500  UD1500      0.0000
      7  C7'       24.0760    7.9070  -25.5900 C.2   500  UD1500      0.0000
      8  C8'       23.9030    6.4860  -26.0550 C.3   500  UD1500      0.0000
      9  N2'       25.3180    8.4520  -25.6890 N.am  500  UD1500      0.0000
     10  O1'       27.2110    9.1080  -23.6570 O.2   500  UD1500     -0.5000
     11  O3'       26.3420   10.4270  -27.5720 O.3   500  UD1500      0.0000
     12  O4'       28.2390   12.2330  -26.5490 O.3   500  UD1500      0.0000
     13  O5'       26.3470   11.3080  -23.4620 O.3   500  UD1500      0.0000
     14  O6'       27.9040   13.5710  -22.5160 O.3   500  UD1500      0.0000
     15  O7'       23.1520    8.5780  -25.1570 O.2   500  UD1500      0.0000
     16  N1        21.3800    6.8520  -18.1070 N.ar  500  UD1500      0.0000
     17  C2        20.1030    6.4570  -17.6300 C.ar  500  UD1500      0.0000
     18  N3        19.7600    5.1020  -17.8550 N.ar  500  UD1500      0.0000
     19  C4        20.6130    4.2150  -18.5000 C.ar  500  UD1500      0.0000
     20  C5        21.9050    4.6440  -18.9620 C.ar  500  UD1500      0.0000
     21  C6        22.2630    5.9510  -18.7580 C.ar  500  UD1500      0.0000
     22  O2        19.3120    7.2350  -17.0580 O.2   500  UD1500      0.0000
     23  O4        20.3220    3.0410  -18.7410 O.2   500  UD1500      0.0000
     24  C1B       21.7890    8.2690  -17.9130 C.3   500  UD1500      0.0000
     25  C2B       23.0420    8.5500  -17.0840 C.3   500  UD1500      0.0000
     26  O2'       22.6450    8.6380  -15.7270 O.3   500  UD1500      0.0000
     27  C3B       23.4740    9.9320  -17.6060 C.3   500  UD1500      0.0000
     28  C4B       22.9340    9.9490  -19.0530 C.3   500  UD1500      0.0000
     29  O4B       21.8840    8.9740  -19.1480 O.3   500  UD1500      0.0000
     30  O3B       22.8810   11.0180  -16.8920 O.3   500  UD1500      0.0000
     31  C5B       24.0080    9.5400  -20.0610 C.3   500  UD1500      0.0000
     32  O5B       24.5120    8.2470  -19.7590 O.3   500  UD1500      0.0000
     33  PA        26.1160    8.0140  -19.8540 P.3   500  UD1500      0.0000
     34  O1A       26.8420    9.0720  -19.0720 O.3   500  UD1500      0.0000
     35  O2A       26.4310    6.6250  -19.4620 O.2   500  UD1500      0.0000
     36  O3A       26.3720    8.2190  -21.4400 O.3   500  UD1500      0.0000
     37  PB        27.7380    8.5910  -22.2170 P.3   500  UD1500      0.0000
     38  O1B       28.5560    7.3660  -22.4470 O.3   500  UD1500     -0.5000
     39  O2B       28.4160    9.7500  -21.5290 O.3   500  UD1500      0.0000
@<TRIPOS>BOND
     1     1    39    1
     2     1    34    1
     3     2     3    1
     4     2     9    1
     5     3    11    1
     6     3     4    1
     7     4    12    1
     8     4     5    1
     9     5     6    1
    10     5    13    1
    11     6    14    1
    12     7     8    1
    13     7     9   am
    14     7    15    2
    15    10    37    2
    16    16    21   ar
    17    16    24    1
    18    16    17   ar
    19    17    18   ar
    20    17    22    2
    21    18    19   ar
    22    19    20   ar
    23    19    23    2
    24    20    21   ar
    25    24    29    1
    26    24    25    1
    27    25    27    1
    28    25    26    1
    29    27    28    1
    30    27    30    1
    31    28    31    1
    32    28    29    1
    33    31    32    1
    34    32    33    1
    35    33    36    1
    36    33    35    2
    37    33    34    1
    38    36    37    1
    39    37    38    1
    40    37    39    1
