@<TRIPOS>MOLECULE
3oh0_UTP_1_ligand
   40    41     1     0     0
SMALL
NO_CHARGES


@<TRIPOS>ATOM
     1 PA          11.8080    10.6350    26.9770 P.3          1 UTP642   0.0000
     2 O1A         11.9310    11.8300    27.8400 O.co2        1 UTP642   0.0000
     3 O2A         12.9680    10.1760    26.1830 O.co2        1 UTP642  -1.0000
     4 O3A         10.5500    10.8260    25.9940 O.3          1 UTP642   0.0000
     5 O5'         11.3020     9.4220    27.8860 O.3          1 UTP642   0.0000
     6 PB           9.2300    11.6090    26.4990 P.3          1 UTP642   0.0000
     7 O1B          9.1410    12.8860    25.7610 O.co2        1 UTP642   0.0000
     8 O2B          9.2290    11.6180    27.9780 O.co2        1 UTP642  -1.0000
     9 O3B          8.0610    10.6430    25.9880 O.3          1 UTP642   0.0000
    10 PG           7.8880     9.2350    26.7230 P.3          1 UTP642   0.0000
    11 O1G          9.1090     8.3980    26.6990 O.co2        1 UTP642   0.0000
    12 O2G          7.3670     9.5640    28.2220 O.co2        1 UTP642  -1.0000
    13 O3G          6.6720     8.4720    26.0280 O.co2        1 UTP642  -1.0000
    14 C5'         11.7980     8.1030    27.6530 C.3          1 UTP642   0.0000
    15 C4'         11.0940     7.0740    28.5860 C.3          1 UTP642   0.0000
    16 O4'         10.8740     8.3410    29.4100 O.3          1 UTP642   0.0000
    17 C1'         10.0980     7.9760    30.5820 C.3          1 UTP642   0.0000
    18 C2'          9.0320     7.6680    29.5460 C.3          1 UTP642   0.0000
    19 O2'          7.8220     7.2850    30.1870 O.3          1 UTP642   0.0000
    20 C3'          9.7490     6.4370    29.0310 C.3          1 UTP642   0.0000
    21 O3'          9.9770     5.4430    30.0160 O.3          1 UTP642   0.0000
    22 N1           9.8560     9.1920    31.4280 N.pl3        1 UTP642   0.0000
    23 C6          10.1690    10.4490    30.9040 C.2          1 UTP642   0.0000
    24 C2           9.3480     9.1250    32.7400 C.2          1 UTP642   0.0000
    25 O2           9.0550     8.0500    33.2620 O.2          1 UTP642   0.0000
    26 N3           9.1600    10.3010    33.4800 N.pl3        1 UTP642   0.0000
    27 C4           9.4760    11.5510    32.9420 C.2          1 UTP642   0.0000
    28 O4           9.3090    12.5800    33.6050 O.2          1 UTP642   0.0000
    29 C5           9.9790    11.6130    31.6470 C.2          1 UTP642   0.0000
    30 H5'1        12.7820     8.0868    27.8305 H            1 UTP642   0.0000
    31 H5'2        11.6270     7.8521    26.7002 H            1 UTP642   0.0000
    32 H4'         11.8194     6.5585    29.0422 H            1 UTP642   0.0000
    33 H1'         10.4407     7.1798    31.0805 H            1 UTP642   0.0000
    34 H2'          8.9162     8.3856    28.8592 H            1 UTP642   0.0000
    35 H6           7.0935     7.9204    29.9309 H            1 UTP642   0.0000
    36 H3'          9.2654     6.0504    28.2457 H            1 UTP642   0.0000
    37 H8           9.1039     5.0418    30.2930 H            1 UTP642   0.0000
    38 H9          10.5370    10.5149    29.9765 H            1 UTP642   0.0000
    39 H10          8.7935    10.2440    34.4087 H            1 UTP642   0.0000
    40 H11         10.2063    12.5002    31.2454 H            1 UTP642   0.0000
@<TRIPOS>BOND
     1    1    2      ar
     2    1    3      ar
     3    1    4       1
     4    1    5       1
     5    4    6       1
     6    5   14       1
     7    6    7      ar
     8    6    8      ar
     9    6    9       1
    10    9   10       1
    11   10   11      ar
    12   10   12      ar
    13   10   13      ar
    14   14   15       1
    15   15   16       1
    16   15   20       1
    17   16   17       1
    18   17   18       1
    19   17   22       1
    20   18   19       1
    21   18   20       1
    22   20   21       1
    23   22   23       1
    24   22   24       1
    25   23   29       2
    26   24   25       2
    27   24   26       1
    28   26   27       1
    29   27   28       2
    30   27   29       1
    31   29   40       1
    32   26   39       1
    33   23   38       1
    34   21   37       1
    35   14   30       1
    36   14   31       1
    37   15   32       1
    38   17   33       1
    39   18   34       1
    40   19   35       1
    41   20   36       1
@<TRIPOS>SUBSTRUCTURE
     1 UTP642      1 GROUP             4 A     UTP     0 **** UTP A 642
