@<TRIPOS>MOLECULE
4k5r_FAD_1_ligand
   84    89     1     0     0
SMALL
NO_CHARGES


@<TRIPOS>ATOM
     1 PA          57.7760   -11.4550    39.1010 P.3          1 FAD601   0.0000
     2 O1A         58.3950   -12.7920    39.4290 O.co2        1 FAD601   0.0000
     3 O2A         56.8040   -10.9500    40.1170 O.co2        1 FAD601  -1.0000
     4 O5B         56.9660   -11.5880    37.7180 O.3          1 FAD601   0.0000
     5 C5B         57.5560   -12.2130    36.6050 C.3          1 FAD601   0.0000
     6 C4B         56.4420   -12.6660    35.6710 C.3          1 FAD601   0.0000
     7 O4B         57.0010   -13.2620    34.5200 O.3          1 FAD601   0.0000
     8 C3B         55.5350   -13.7070    36.3030 C.3          1 FAD601   0.0000
     9 O3B         54.2090   -13.2350    36.2310 O.3          1 FAD601   0.0000
    10 C2B         55.7230   -14.9560    35.4510 C.3          1 FAD601   0.0000
    11 O2B         54.4970   -15.6370    35.2950 O.3          1 FAD601   0.0000
    12 C1B         56.2270   -14.3790    34.1370 C.3          1 FAD601   0.0000
    13 N9A         57.0900   -15.2580    33.3310 N.pl3        1 FAD601   0.0000
    14 C8A         58.1760   -15.9830    33.7430 C.2          1 FAD601   0.0000
    15 N7A         58.7050   -16.6230    32.6700 N.2          1 FAD601   0.0000
    16 C5A         57.9690   -16.3100    31.5760 C.ar         1 FAD601   0.0000
    17 C6A         58.0650   -16.6770    30.2360 C.ar         1 FAD601   0.0000
    18 N6A         59.0480   -17.4810    29.8240 N.pl3        1 FAD601   0.0000
    19 N1A         57.1580   -16.1740    29.3250 N.ar         1 FAD601   0.0000
    20 C2A         56.1610   -15.3190    29.7460 C.ar         1 FAD601   0.0000
    21 N3A         56.0730   -14.9540    31.0770 N.ar         1 FAD601   0.0000
    22 C4A         56.9640   -15.4400    31.9770 C.ar         1 FAD601   0.0000
    23 N1          59.7030    -6.2950    47.2770 N.2          1 FAD601   0.0000
    24 C2          59.3680    -5.0090    47.6690 C.2          1 FAD601   0.0000
    25 O2          59.6910    -4.0240    46.9990 O.2          1 FAD601   0.0000
    26 N3          58.6640    -4.8220    48.8310 N.pl3        1 FAD601   0.0000
    27 C4          58.2970    -5.9020    49.6020 C.2          1 FAD601   0.0000
    28 O4          57.6730    -5.7090    50.6410 O.2          1 FAD601   0.0000
    29 C4X         58.6290    -7.1970    49.2130 C.2          1 FAD601   0.0000
    30 N5          58.2580    -8.2780    49.9920 N.2          1 FAD601   0.0000
    31 C5X         58.5910    -9.5630    49.6070 C.ar         1 FAD601   0.0000
    32 C6          58.2190   -10.6550    50.3920 C.ar         1 FAD601   0.0000
    33 C7          58.5590   -11.9480    49.9980 C.ar         1 FAD601   0.0000
    34 C7M         58.1550   -13.1190    50.8430 C.3          1 FAD601   0.0000
    35 C8          59.2640   -12.1570    48.8170 C.ar         1 FAD601   0.0000
    36 C8M         59.6240   -13.5540    48.3880 C.3          1 FAD601   0.0000
    37 C9          59.6330   -11.0660    48.0360 C.ar         1 FAD601   0.0000
    38 C9A         59.2980    -9.7700    48.4280 C.ar         1 FAD601   0.0000
    39 N10         59.6770    -8.6920    47.6490 N.pl3        1 FAD601   0.0000
    40 C10         59.3410    -7.3970    48.0370 C.2          1 FAD601   0.0000
    41 C1'         60.4230    -8.9460    46.3690 C.3          1 FAD601   0.0000
    42 C2'         59.4050    -8.8080    45.2180 C.3          1 FAD601   0.0000
    43 O2'         58.2650    -9.6310    45.4070 O.3          1 FAD601   0.0000
    44 C3'         59.9960    -9.1050    43.8480 C.3          1 FAD601   0.0000
    45 O3'         61.1160    -8.2780    43.6560 O.3          1 FAD601   0.0000
    46 C4'         59.0050    -8.8310    42.7130 C.3          1 FAD601   0.0000
    47 O4'         58.0730    -9.8930    42.6160 O.3          1 FAD601   0.0000
    48 C5'         59.7220    -8.6910    41.3660 C.3          1 FAD601   0.0000
    49 O5'         58.7150    -8.4880    40.3880 O.3          1 FAD601   0.0000
    50 P           58.9840    -8.8880    38.8650 P.3          1 FAD601   0.0000
    51 O1P         57.8290    -8.4430    38.0180 O.co2        1 FAD601   0.0000
    52 O2P         60.3570    -8.4880    38.4270 O.co2        1 FAD601  -1.0000
    53 O3P         59.0420   -10.4980    38.8400 O.3          1 FAD601   0.0000
    54 H5B1        58.0902   -13.0038    36.9040 H            1 FAD601   0.0000
    55 H5B2        58.1540   -11.5668    36.1309 H            1 FAD601   0.0000
    56 H4B         55.8959   -11.8734    35.4000 H            1 FAD601   0.0000
    57 H3B         55.7997   -13.8805    37.2516 H            1 FAD601   0.0000
    58 H5          53.9568   -13.0943    35.2736 H            1 FAD601   0.0000
    59 H2B         56.4104   -15.5582    35.8570 H            1 FAD601   0.0000
    60 H7          53.8359   -15.0349    34.8473 H            1 FAD601   0.0000
    61 H1B         55.4505   -14.0748    33.5852 H            1 FAD601   0.0000
    62 H8A         58.5221   -16.0326    34.6799 H            1 FAD601   0.0000
    63 H6A1        59.1109   -17.7405    28.8603 H            1 FAD601   0.0000
    64 H6A2        59.7214   -17.8237    30.4791 H            1 FAD601   0.0000
    65 H2A         55.4995   -14.9618    29.0866 H            1 FAD601   0.0000
    66 H13         58.4161    -3.8972    49.1195 H            1 FAD601   0.0000
    67 H14         57.7075   -10.5096    51.2389 H            1 FAD601   0.0000
    68 H7M1        58.4771   -13.9644    50.4169 H            1 FAD601   0.0000
    69 H7M2        58.5600   -13.0290    51.7529 H            1 FAD601   0.0000
    70 H7M3        57.1585   -13.1445    50.9227 H            1 FAD601   0.0000
    71 H8M1        60.1253   -13.5185    47.5234 H            1 FAD601   0.0000
    72 H8M2        60.1967   -13.9805    49.0881 H            1 FAD601   0.0000
    73 H8M3        58.7892   -14.0912    48.2675 H            1 FAD601   0.0000
    74 H21         60.1420   -11.2122    47.1877 H            1 FAD601   0.0000
    75 H1'1        60.8115    -9.8674    46.3751 H            1 FAD601   0.0000
    76 H1'2        61.1569    -8.2755    46.2605 H            1 FAD601   0.0000
    77 H2'         59.0906    -7.8588    45.2088 H            1 FAD601   0.0000
    78 H25         57.4448    -9.0603    45.4468 H            1 FAD601   0.0000
    79 H3'         60.2824   -10.0624    43.8124 H            1 FAD601   0.0000
    80 H27         61.7748    -8.7414    43.0634 H            1 FAD601   0.0000
    81 H4'         58.5125    -7.9830    42.9089 H            1 FAD601   0.0000
    82 H29         57.7721    -9.9868    41.6670 H            1 FAD601   0.0000
    83 H5'1        60.2379    -9.5230    41.1620 H            1 FAD601   0.0000
    84 H5'2        60.3450    -7.9091    41.3867 H            1 FAD601   0.0000
@<TRIPOS>BOND
     1    1    2      ar
     2    1    3      ar
     3    1    4       1
     4    1   53       1
     5    4    5       1
     6    5    6       1
     7    6    7       1
     8    6    8       1
     9    7   12       1
    10    8    9       1
    11    8   10       1
    12   10   11       1
    13   10   12       1
    14   12   13       1
    15   13   14       1
    16   13   22       1
    17   14   15       2
    18   15   16       1
    19   16   17      ar
    20   16   22      ar
    21   17   18       1
    22   17   19      ar
    23   19   20      ar
    24   20   21      ar
    25   21   22      ar
    26   23   24       1
    27   23   40       2
    28   24   25       2
    29   24   26       1
    30   26   27       1
    31   27   28       2
    32   27   29       1
    33   29   30       2
    34   29   40       1
    35   30   31       1
    36   31   32      ar
    37   31   38      ar
    38   32   33      ar
    39   33   34       1
    40   33   35      ar
    41   35   36       1
    42   35   37      ar
    43   37   38      ar
    44   38   39       1
    45   39   40       1
    46   39   41       1
    47   41   42       1
    48   42   43       1
    49   42   44       1
    50   44   45       1
    51   44   46       1
    52   46   47       1
    53   46   48       1
    54   48   49       1
    55   49   50       1
    56   50   51      ar
    57   50   52      ar
    58   50   53       1
    59   48   84       1
    60    5   54       1
    61    5   55       1
    62    6   56       1
    63    8   57       1
    64    9   58       1
    65   10   59       1
    66   11   60       1
    67   12   61       1
    68   14   62       1
    69   18   63       1
    70   18   64       1
    71   20   65       1
    72   26   66       1
    73   32   67       1
    74   34   68       1
    75   34   69       1
    76   34   70       1
    77   36   71       1
    78   36   72       1
    79   36   73       1
    80   37   74       1
    81   41   75       1
    82   41   76       1
    83   42   77       1
    84   43   78       1
    85   44   79       1
    86   45   80       1
    87   46   81       1
    88   47   82       1
    89   48   83       1
@<TRIPOS>SUBSTRUCTURE
     1 FAD601      1 GROUP             4 A     FAD     0 **** FAD A 601
