@<TRIPOS>MOLECULE
4bqy_FNT_1_ligand
   29    30     1     0     0
SMALL
NO_CHARGES


@<TRIPOS>ATOM
     1 C1         -44.1240   -20.4180     2.9120 C.ar         1 FNT601   0.0000
     2 CL1        -42.9490   -22.6770     4.4560 Cl           1 FNT601   0.0000
     3 C2         -42.8390   -20.2120     3.3770 C.ar         1 FNT601   0.0000
     4 C3         -42.1860   -19.0640     3.1220 C.ar         1 FNT601   0.0000
     5 C4         -42.8240   -18.0690     2.4050 C.ar         1 FNT601   0.0000
     6 C5         -44.1020   -18.2490     1.9370 C.ar         1 FNT601   0.0000
     7 C6         -44.7480   -19.4270     2.1880 C.ar         1 FNT601   0.0000
     8 C7         -42.1930   -21.1720     4.1020 C.ar         1 FNT601   0.0000
     9 N8         -40.9650   -20.9970     4.5890 N.ar         1 FNT601   0.0000
    10 C9         -40.2730   -19.8940     4.3620 C.ar         1 FNT601   0.0000
    11 C08        -36.0820   -20.1730     4.5620 C.3          1 FNT601   0.0000
    12 C10        -40.9070   -18.9010     3.6070 C.ar         1 FNT601   0.0000
    13 C12        -38.9780   -19.8150     4.9250 C.2          1 FNT601   0.0000
    14 O13        -38.6060   -20.5300     5.9540 O.2          1 FNT601   0.0000
    15 N14        -38.1100   -18.9330     4.4310 N.am         1 FNT601   0.0000
    16 C15        -36.7910   -18.8920     4.9250 C.3          1 FNT601   0.0000
    17 C16        -36.0290   -17.7360     4.2870 C.2          1 FNT601   0.0000
    18 O17        -36.5910   -17.0250     3.4350 O.co2        1 FNT601   0.0000
    19 O18        -34.8690   -17.5700     4.6760 O.co2        1 FNT601  -1.0000
    20 O19        -40.2480   -17.7220     3.3270 O.3          1 FNT601  -1.0000
    21 H1         -44.5964   -21.2792     3.0997 H            1 FNT601   0.0000
    22 H2         -42.3488   -17.2077     2.2251 H            1 FNT601   0.0000
    23 H3         -44.5559   -17.5251     1.4174 H            1 FNT601   0.0000
    24 H4         -45.6764   -19.5695     1.8449 H            1 FNT601   0.0000
    25 H5         -35.1455   -20.1463     4.9116 H            1 FNT601   0.0000
    26 H6         -36.5668   -20.9485     4.9665 H            1 FNT601   0.0000
    27 H7         -36.0637   -20.2735     3.5672 H            1 FNT601   0.0000
    28 H8         -38.3944   -18.3007     3.7103 H            1 FNT601   0.0000
    29 H9         -36.8044   -18.7818     5.9188 H            1 FNT601   0.0000
@<TRIPOS>BOND
     1    1    3      ar
     2    1    7      ar
     3    2    8       1
     4    3    4      ar
     5    3    8      ar
     6    4    5      ar
     7    4   12      ar
     8    5    6      ar
     9    6    7      ar
    10    8    9      ar
    11    9   10      ar
    12   10   12      ar
    13   10   13       1
    14   11   16       1
    15   12   20       1
    16   13   14       2
    17   13   15      am
    18   15   16       1
    19   16   17       1
    20   17   18      ar
    21   17   19      ar
    22    1   21       1
    23    5   22       1
    24    6   23       1
    25    7   24       1
    26   11   25       1
    27   11   26       1
    28   11   27       1
    29   15   28       1
    30   16   29       1
@<TRIPOS>SUBSTRUCTURE
     1 FNT601      1 GROUP             4 A     FNT     0 **** FNT A 601
