@<TRIPOS>MOLECULE
4hi0_GDP_1_ligand
   40    42     1     0     0
SMALL
NO_CHARGES


@<TRIPOS>ATOM
     1 PB         -42.6660     4.3220    33.3200 P.3          1 GDP201   0.0000
     2 O1B        -41.7710     4.7690    34.4580 O.co2        1 GDP201   0.0000
     3 O2B        -42.8910     2.8370    33.4210 O.co2        1 GDP201  -1.0000
     4 O3B        -42.0150     4.6790    32.0020 O.co2        1 GDP201  -1.0000
     5 O3A        -44.1000     5.0400    33.4840 O.3          1 GDP201   0.0000
     6 PA         -44.9990     5.4960    32.2260 P.3          1 GDP201   0.0000
     7 O1A        -44.3020     6.6100    31.4820 O.co2        1 GDP201   0.0000
     8 O2A        -45.3590     4.3120    31.3580 O.co2        1 GDP201  -1.0000
     9 O5'        -46.3380     6.0160    32.9460 O.3          1 GDP201   0.0000
    10 C5'        -47.2030     5.0570    33.5450 C.3          1 GDP201   0.0000
    11 C4'        -48.6490     5.5140    33.4690 C.3          1 GDP201   0.0000
    12 O4'        -48.8440     6.6200    34.3450 O.3          1 GDP201   0.0000
    13 C3'        -48.9880     6.0020    32.0730 C.3          1 GDP201   0.0000
    14 O3'        -50.2900     5.5130    31.7670 O.3          1 GDP201   0.0000
    15 C2'        -49.0080     7.5140    32.1810 C.3          1 GDP201   0.0000
    16 O2'        -49.9230     8.1190    31.2580 O.3          1 GDP201   0.0000
    17 C1'        -49.4420     7.6950    33.6240 C.3          1 GDP201   0.0000
    18 N9         -48.9980     8.9760    34.2040 N.pl3        1 GDP201   0.0000
    19 C8         -47.8210     9.6140    34.0470 C.2          1 GDP201   0.0000
    20 N7         -47.8000    10.7730    34.7610 N.2          1 GDP201   0.0000
    21 C5         -48.9920    10.8690    35.4010 C.2          1 GDP201   0.0000
    22 C6         -49.6580    11.8230    36.3270 C.2          1 GDP201   0.0000
    23 O6         -49.0730    12.8660    36.7060 O.2          1 GDP201   0.0000
    24 N1         -50.9030    11.5250    36.7450 N.pl3        1 GDP201   0.0000
    25 C2         -51.5590    10.4100    36.3540 C.2          1 GDP201   0.0000
    26 N2         -52.8130    10.1720    36.8120 N.pl3        1 GDP201   0.0000
    27 N3         -51.0130     9.4970    35.5140 N.2          1 GDP201   0.0000
    28 C4         -49.7650     9.6760    35.0250 C.2          1 GDP201   0.0000
    29 H5'1       -46.9466     4.9381    34.5042 H            1 GDP201   0.0000
    30 H5'2       -47.1089     4.1852    33.0643 H            1 GDP201   0.0000
    31 H4'        -49.2582     4.7636    33.7257 H            1 GDP201   0.0000
    32 H3'        -48.3136     5.6918    31.4029 H            1 GDP201   0.0000
    33 H5         -50.9447     5.8678    32.4345 H            1 GDP201   0.0000
    34 H2'        -48.0880     7.8825    32.0477 H            1 GDP201   0.0000
    35 H7         -50.3721     7.4067    30.7186 H            1 GDP201   0.0000
    36 H1'        -50.4378     7.6267    33.6854 H            1 GDP201   0.0000
    37 H9         -47.0656     9.2811    33.4826 H            1 GDP201   0.0000
    38 H10        -51.3615    12.1555    37.3713 H            1 GDP201   0.0000
    39 H11        -53.3021     9.3482    36.5253 H            1 GDP201   0.0000
    40 H12        -53.2487    10.8203    37.4365 H            1 GDP201   0.0000
@<TRIPOS>BOND
     1    1    2      ar
     2    1    3      ar
     3    1    4      ar
     4    1    5       1
     5    5    6       1
     6    6    7      ar
     7    6    8      ar
     8    6    9       1
     9    9   10       1
    10   10   11       1
    11   11   12       1
    12   11   13       1
    13   12   17       1
    14   13   14       1
    15   13   15       1
    16   15   16       1
    17   15   17       1
    18   17   18       1
    19   18   19       1
    20   18   28       1
    21   19   20       2
    22   20   21       1
    23   21   22       1
    24   21   28       2
    25   22   23       2
    26   22   24       1
    27   24   25       1
    28   25   26       1
    29   25   27       2
    30   27   28       1
    31   26   40       1
    32   26   39       1
    33   24   38       1
    34   10   29       1
    35   10   30       1
    36   11   31       1
    37   13   32       1
    38   14   33       1
    39   15   34       1
    40   16   35       1
    41   17   36       1
    42   19   37       1
@<TRIPOS>SUBSTRUCTURE
     1 GDP201      1 GROUP             4 E     GDP     0 **** GDP E 201
