@<TRIPOS>MOLECULE
4jwf_SAH_2_ligand
   46    48     1     0     0
SMALL
NO_CHARGES


@<TRIPOS>ATOM
     1 N           51.8700    -2.6650   -42.9740 N.4          1 SAH301   1.0000
     2 CA          51.5660    -1.2580   -42.5700 C.3          1 SAH301   0.0000
     3 CB          50.3800    -1.2220   -41.5790 C.3          1 SAH301   0.0000
     4 CG          50.7040    -1.4730   -40.1070 C.3          1 SAH301   0.0000
     5 SD          49.3040    -1.3490   -39.0240 S.3          1 SAH301   0.0000
     6 C           52.8580    -0.5960   -42.1180 C.2          1 SAH301   0.0000
     7 O           53.8960    -0.7190   -42.7780 O.co2        1 SAH301   0.0000
     8 OXT         52.9540     0.0930   -41.1010 O.co2        1 SAH301  -1.0000
     9 C5'         48.8460     0.3280   -38.6700 C.3          1 SAH301   0.0000
    10 C4'         49.9130     1.2670   -38.0810 C.3          1 SAH301   0.0000
    11 O4'         50.1310     1.1290   -36.6740 O.3          1 SAH301   0.0000
    12 C3'         51.2760     1.1300   -38.7170 C.3          1 SAH301   0.0000
    13 O3'         51.3010     1.9310   -39.8800 O.3          1 SAH301   0.0000
    14 C2'         52.2330     1.6100   -37.6570 C.3          1 SAH301   0.0000
    15 O2'         52.3850     3.0270   -37.7480 O.3          1 SAH301   0.0000
    16 C1'         51.5200     1.2750   -36.3630 C.3          1 SAH301   0.0000
    17 N9          52.0350     0.0160   -35.7480 N.pl3        1 SAH301   0.0000
    18 C8          51.4850    -1.2120   -35.8400 C.2          1 SAH301   0.0000
    19 N7          52.1890    -2.1390   -35.1390 N.2          1 SAH301   0.0000
    20 C5          53.2160    -1.5020   -34.5580 C.ar         1 SAH301   0.0000
    21 C6          54.3630    -1.8660   -33.6830 C.ar         1 SAH301   0.0000
    22 N6          54.5760    -3.1330   -33.2540 N.pl3        1 SAH301   0.0000
    23 N1          55.2100    -0.8740   -33.3240 N.ar         1 SAH301   0.0000
    24 C2          55.0370     0.4000   -33.7280 C.ar         1 SAH301   0.0000
    25 N3          54.0390     0.7920   -34.5300 N.ar         1 SAH301   0.0000
    26 C4          53.1130    -0.0860   -34.9720 C.ar         1 SAH301   0.0000
    27 H1          52.6384    -2.6694   -43.6140 H            1 SAH301   0.0000
    28 H2          52.1081    -3.2004   -42.1637 H            1 SAH301   0.0000
    29 HA          51.2682    -0.7780   -43.3952 H            1 SAH301   0.0000
    30 HB1         49.7236    -1.9191   -41.8674 H            1 SAH301   0.0000
    31 HB2         49.9573    -0.3182   -41.6458 H            1 SAH301   0.0000
    32 HG1         51.3857    -0.8014   -39.8168 H            1 SAH301   0.0000
    33 HG2         51.0857    -2.3934   -40.0222 H            1 SAH301   0.0000
    34 H5'1        48.0875     0.2966   -38.0191 H            1 SAH301   0.0000
    35 H5'2        48.5328     0.7366   -39.5273 H            1 SAH301   0.0000
    36 H4'         49.6040     2.2043   -38.2422 H            1 SAH301   0.0000
    37 H3'         51.4599     0.1743   -38.9469 H            1 SAH301   0.0000
    38 H12         51.9220     1.5255   -40.5507 H            1 SAH301   0.0000
    39 H2'         53.1146     1.1424   -37.7209 H            1 SAH301   0.0000
    40 H14         53.3442     3.2488   -37.9235 H            1 SAH301   0.0000
    41 H1'         51.6362     2.0295   -35.7171 H            1 SAH301   0.0000
    42 H16         50.6570    -1.4161   -36.3623 H            1 SAH301   0.0000
    43 H17         55.3591    -3.3370   -32.6665 H            1 SAH301   0.0000
    44 H18         53.9502    -3.8644   -33.5248 H            1 SAH301   0.0000
    45 H19         55.6888     1.0894   -33.4119 H            1 SAH301   0.0000
    46 H20         51.0669    -3.0662   -43.4145 H            1 SAH301   0.0000
@<TRIPOS>BOND
     1    1    2       1
     2    2    3       1
     3    2    6       1
     4    3    4       1
     5    4    5       1
     6    5    9       1
     7    6    7      ar
     8    6    8      ar
     9    9   10       1
    10   10   11       1
    11   10   12       1
    12   11   16       1
    13   12   13       1
    14   12   14       1
    15   14   15       1
    16   14   16       1
    17   16   17       1
    18   17   18       1
    19   17   26       1
    20   18   19       2
    21   19   20       1
    22   20   21      ar
    23   20   26      ar
    24   21   22       1
    25   21   23      ar
    26   23   24      ar
    27   24   25      ar
    28   25   26      ar
    29    1   27       1
    30    1   28       1
    31    2   29       1
    32    3   30       1
    33    3   31       1
    34    4   32       1
    35    4   33       1
    36    1   46       1
    37    9   34       1
    38    9   35       1
    39   10   36       1
    40   12   37       1
    41   13   38       1
    42   14   39       1
    43   15   40       1
    44   16   41       1
    45   18   42       1
    46   22   43       1
    47   22   44       1
    48   24   45       1
@<TRIPOS>SUBSTRUCTURE
     1 SAH301      1 GROUP             4 B     SAH     0 **** SAH B 301
