@<TRIPOS>MOLECULE
4xfj_ANP_1_ligand
   44    46     1     0     0
SMALL
NO_CHARGES


@<TRIPOS>ATOM
     1 PG          77.8040    20.2270    54.9750 P.3          1 ANP501   0.0000
     2 O1G         78.6880    21.2710    54.3360 O.co2        1 ANP501   0.0000
     3 O2G         77.9350    20.2960    56.5130 O.co2        1 ANP501  -1.0000
     4 O3G         76.3410    20.2140    54.5930 O.co2        1 ANP501  -1.0000
     5 PB          77.8630    17.7770    53.4430 P.3          1 ANP501   0.0000
     6 O1B         77.1030    18.6000    52.4640 O.co2        1 ANP501   0.0000
     7 O2B         78.8590    16.7390    52.9170 O.co2        1 ANP501  -1.0000
     8 N3B         78.5250    18.6290    54.7250 N.3          1 ANP501   0.0000
     9 PA          75.1250    16.9660    54.2500 P.3          1 ANP501   0.0000
    10 O1A         74.5500    18.0870    53.4570 O.co2        1 ANP501   0.0000
    11 O2A         74.4680    16.5800    55.5640 O.co2        1 ANP501  -1.0000
    12 O3A         76.6760    16.8280    54.2640 O.3          1 ANP501   0.0000
    13 O5'         74.7650    15.6140    53.1640 O.3          1 ANP501   0.0000
    14 C5'         75.2800    14.3660    53.4740 C.3          1 ANP501   0.0000
    15 C4'         75.8200    13.7660    52.1200 C.3          1 ANP501   0.0000
    16 O4'         74.7680    13.7390    51.1940 O.3          1 ANP501   0.0000
    17 C3'         76.8380    14.7030    51.5110 C.3          1 ANP501   0.0000
    18 O3'         78.0790    14.4440    52.1220 O.3          1 ANP501   0.0000
    19 C2'         76.8500    14.2600    50.0830 C.3          1 ANP501   0.0000
    20 O2'         77.5790    13.1000    49.9170 O.3          1 ANP501   0.0000
    21 C1'         75.3280    13.9090    49.9040 C.3          1 ANP501   0.0000
    22 N9          74.5590    15.0180    49.2850 N.pl3        1 ANP501   0.0000
    23 C8          73.7540    15.9510    49.8990 C.2          1 ANP501   0.0000
    24 N7          73.1760    16.8340    49.0690 N.2          1 ANP501   0.0000
    25 C5          73.6320    16.4140    47.8250 C.ar         1 ANP501   0.0000
    26 C6          73.3880    16.8980    46.5540 C.ar         1 ANP501   0.0000
    27 N6          72.5570    17.9890    46.3820 N.pl3        1 ANP501   0.0000
    28 N1          73.9500    16.3180    45.4660 N.ar         1 ANP501   0.0000
    29 C2          74.7470    15.2670    45.7650 C.ar         1 ANP501   0.0000
    30 N3          75.0960    14.6550    46.9190 N.ar         1 ANP501   0.0000
    31 C4          74.5030    15.2790    47.9490 C.ar         1 ANP501   0.0000
    32 H3B         79.5026    18.7485    54.5520 H            1 ANP501   0.0000
    33 H5'1        74.5638    13.7794    53.8522 H            1 ANP501   0.0000
    34 H5'2        76.0242    14.4526    54.1363 H            1 ANP501   0.0000
    35 H4'         76.2049    12.8532    52.2569 H            1 ANP501   0.0000
    36 H3'         76.5676    15.6613    51.6036 H            1 ANP501   0.0000
    37 H6          78.4061    15.2724    52.5767 H            1 ANP501   0.0000
    38 H2'         77.1470    14.9864    49.4632 H            1 ANP501   0.0000
    39 H8          77.9803    13.0867    49.0011 H            1 ANP501   0.0000
    40 H1'         75.2248    13.0719    49.3668 H            1 ANP501   0.0000
    41 H10         73.6106    15.9696    50.8885 H            1 ANP501   0.0000
    42 H11         72.3784    18.3416    45.4634 H            1 ANP501   0.0000
    43 H12         72.1343    18.4257    47.1761 H            1 ANP501   0.0000
    44 H13         75.1693    14.8533    44.9585 H            1 ANP501   0.0000
@<TRIPOS>BOND
     1    1    2      ar
     2    1    3      ar
     3    1    4      ar
     4    1    8       1
     5    5    6      ar
     6    5    7      ar
     7    5    8       1
     8    5   12       1
     9    9   10      ar
    10    9   11      ar
    11    9   12       1
    12    9   13       1
    13   13   14       1
    14   14   15       1
    15   15   16       1
    16   15   17       1
    17   16   21       1
    18   17   18       1
    19   17   19       1
    20   19   20       1
    21   19   21       1
    22   21   22       1
    23   22   23       1
    24   22   31       1
    25   23   24       2
    26   24   25       1
    27   25   26      ar
    28   25   31      ar
    29   26   27       1
    30   26   28      ar
    31   28   29      ar
    32   29   30      ar
    33   30   31      ar
    34   29   44       1
    35   27   43       1
    36   27   42       1
    37    8   32       1
    38   23   41       1
    39   14   33       1
    40   14   34       1
    41   15   35       1
    42   17   36       1
    43   18   37       1
    44   19   38       1
    45   20   39       1
    46   21   40       1
@<TRIPOS>SUBSTRUCTURE
     1 ANP501      1 GROUP             4 A     ANP     0 **** ANP A 501
