@<TRIPOS>MOLECULE
2j41_5GP_1_ligand
   36    38     1     0     0
SMALL
NO_CHARGES


@<TRIPOS>ATOM
     1 P            5.8540   -27.4170    61.7480 P.3          1 5GP1208   0.0000
     2 O1P          4.6790   -27.2200    60.8500 O.co2        1 5GP1208   0.0000
     3 O2P          6.4980   -28.7820    61.7790 O.co2        1 5GP1208  -1.0000
     4 O3P          5.6740   -26.8390    63.1340 O.co2        1 5GP1208  -1.0000
     5 O5'          6.9760   -26.4550    61.1430 O.3          1 5GP1208   0.0000
     6 C5'          8.2900   -26.5300    61.6820 C.3          1 5GP1208   0.0000
     7 C4'          9.1440   -25.3510    61.2440 C.3          1 5GP1208   0.0000
     8 O4'          9.4510   -25.5390    59.8720 O.3          1 5GP1208   0.0000
     9 C3'          8.4600   -23.9930    61.3510 C.3          1 5GP1208   0.0000
    10 O3'          9.4410   -23.1290    61.9030 O.3          1 5GP1208   0.0000
    11 C2'          8.2110   -23.5520    59.9190 C.3          1 5GP1208   0.0000
    12 O2'          8.3940   -22.1400    59.7490 O.3          1 5GP1208   0.0000
    13 C1'          9.2920   -24.3050    59.1690 C.3          1 5GP1208   0.0000
    14 N9           8.9410   -24.5310    57.7420 N.pl3        1 5GP1208   0.0000
    15 C8           7.7430   -24.8110    57.2440 C.2          1 5GP1208   0.0000
    16 N7           7.8520   -24.9410    55.8960 N.2          1 5GP1208   0.0000
    17 C5           9.1310   -24.7450    55.5720 C.2          1 5GP1208   0.0000
    18 C6           9.8080   -24.7330    54.3650 C.2          1 5GP1208   0.0000
    19 O6           9.2010   -24.9330    53.2650 O.2          1 5GP1208   0.0000
    20 N1          11.1210   -24.4960    54.4000 N.pl3        1 5GP1208   0.0000
    21 C2          11.7890   -24.2630    55.5470 C.2          1 5GP1208   0.0000
    22 N2          13.1200   -24.0160    55.4840 N.pl3        1 5GP1208   0.0000
    23 N3          11.1400   -24.2330    56.7330 N.2          1 5GP1208   0.0000
    24 C4           9.8160   -24.4840    56.7550 C.2          1 5GP1208   0.0000
    25 H5'1         8.7210   -27.3765    61.3694 H            1 5GP1208   0.0000
    26 H5'2         8.2313   -26.5348    62.6803 H            1 5GP1208   0.0000
    27 H4'          9.9911   -25.3390    61.7753 H            1 5GP1208   0.0000
    28 H3'          7.6224   -24.0245    61.8964 H            1 5GP1208   0.0000
    29 H5          10.2349   -23.0952    61.2960 H            1 5GP1208   0.0000
    30 H2'          7.3018   -23.8334    59.6121 H            1 5GP1208   0.0000
    31 H7           7.5407   -21.7296    59.4274 H            1 5GP1208   0.0000
    32 H1'         10.1462   -23.7874    59.2183 H            1 5GP1208   0.0000
    33 H9           6.9002   -24.9099    57.7731 H            1 5GP1208   0.0000
    34 H10         11.6302   -24.4911    53.5394 H            1 5GP1208   0.0000
    35 H11         13.6362   -23.8404    56.3223 H            1 5GP1208   0.0000
    36 H12         13.5860   -24.0093    54.5992 H            1 5GP1208   0.0000
@<TRIPOS>BOND
     1    1    2      ar
     2    1    3      ar
     3    1    4      ar
     4    1    5       1
     5    5    6       1
     6    6    7       1
     7    7    8       1
     8    7    9       1
     9    8   13       1
    10    9   10       1
    11    9   11       1
    12   11   12       1
    13   11   13       1
    14   13   14       1
    15   14   15       1
    16   14   24       1
    17   15   16       2
    18   16   17       1
    19   17   18       1
    20   17   24       2
    21   18   19       2
    22   18   20       1
    23   20   21       1
    24   21   22       1
    25   21   23       2
    26   23   24       1
    27   22   36       1
    28   22   35       1
    29    6   25       1
    30    6   26       1
    31    7   27       1
    32    9   28       1
    33   10   29       1
    34   11   30       1
    35   12   31       1
    36   13   32       1
    37   15   33       1
    38   20   34       1
@<TRIPOS>SUBSTRUCTURE
     1 5GP1208     1 GROUP             4 B     5GP     0 **** 5GP B1208
