@<TRIPOS>MOLECULE
2hrb_NAP_1_ligand
   73    77     1     0     0
SMALL
NO_CHARGES


@<TRIPOS>ATOM
     1 PA          13.8080    24.2780    10.0100 P.3          1 NAP1001   0.0000
     2 O1A         13.4270    25.1360     8.8930 O.co2        1 NAP1001   0.0000
     3 O2A         15.1030    24.6650    10.6670 O.co2        1 NAP1001  -1.0000
     4 O5B         12.5930    24.2010    11.0840 O.3          1 NAP1001   0.0000
     5 C5B         12.6760    23.3010    12.1830 C.3          1 NAP1001   0.0000
     6 C4B         11.3060    23.2120    12.8370 C.3          1 NAP1001   0.0000
     7 O4B         11.5010    22.4490    13.9860 O.3          1 NAP1001   0.0000
     8 C3B         10.8160    24.5970    13.3140 C.3          1 NAP1001   0.0000
     9 O3B          9.3930    24.6330    13.2130 O.3          1 NAP1001   0.0000
    10 C2B         11.3270    24.6740    14.7570 C.3          1 NAP1001   0.0000
    11 O2B         10.6090    25.5900    15.5980 O.3          1 NAP1001   0.0000
    12 C1B         11.1220    23.2000    15.1320 C.3          1 NAP1001   0.0000
    13 N9A         11.7760    22.8700    16.4000 N.pl3        1 NAP1001   0.0000
    14 C8A         13.1060    22.9690    16.7510 C.2          1 NAP1001   0.0000
    15 N7A         13.1970    22.5660    18.0400 N.2          1 NAP1001   0.0000
    16 C5A         11.9590    22.2690    18.5190 C.ar         1 NAP1001   0.0000
    17 C6A         11.4810    21.8550    19.7630 C.ar         1 NAP1001   0.0000
    18 N6A         12.2980    21.6660    20.8250 N.pl3        1 NAP1001   0.0000
    19 N1A         10.1230    21.6100    19.8830 N.ar         1 NAP1001   0.0000
    20 C2A          9.2430    21.8130    18.8390 C.ar         1 NAP1001   0.0000
    21 N3A          9.7100    22.2460    17.6190 N.ar         1 NAP1001   0.0000
    22 C4A         11.0510    22.4610    17.4840 C.ar         1 NAP1001   0.0000
    23 O3          13.9730    22.7330     9.5390 O.3          1 NAP1001   0.0000
    24 PN          13.8020    22.1040     8.0550 P.3          1 NAP1001   0.0000
    25 O1N         14.9960    22.4850     7.2420 O.co2        1 NAP1001   0.0000
    26 O2N         12.4150    22.2990     7.5040 O.co2        1 NAP1001  -1.0000
    27 O5D         13.9450    20.5450     8.4330 O.3          1 NAP1001   0.0000
    28 C5D         12.8630    19.7580     8.8830 C.3          1 NAP1001   0.0000
    29 C4D         13.4120    18.3470     9.0950 C.3          1 NAP1001   0.0000
    30 O4D         14.0630    17.8440     7.9140 O.3          1 NAP1001   0.0000
    31 C3D         14.4560    18.3270    10.2110 C.3          1 NAP1001   0.0000
    32 O3D         14.2800    17.1370    10.9400 O.3          1 NAP1001   0.0000
    33 C2D         15.7900    18.3260     9.4700 C.3          1 NAP1001   0.0000
    34 O2D         16.7950    17.7560    10.2910 O.3          1 NAP1001   0.0000
    35 C1D         15.4340    17.5210     8.2100 C.3          1 NAP1001   0.0000
    36 N1N         16.2640    17.7420     7.0080 N.ar         1 NAP1001   1.0000
    37 C2N         16.3260    18.9860     6.4040 C.ar         1 NAP1001   0.0000
    38 C3N         17.0890    19.2070     5.2360 C.ar         1 NAP1001   0.0000
    39 C7N         17.1750    20.5940     4.6180 C.2          1 NAP1001   0.0000
    40 O7N         18.2580    20.9510     3.7730 O.2          1 NAP1001   0.0000
    41 N7N         16.2320    21.4990     4.8760 N.am         1 NAP1001   0.0000
    42 C4N         17.7810    18.1150     4.6710 C.ar         1 NAP1001   0.0000
    43 C5N         17.7110    16.8510     5.2820 C.ar         1 NAP1001   0.0000
    44 C6N         16.9380    16.6680     6.4520 C.ar         1 NAP1001   0.0000
    45 P2B         10.9860    27.1830    15.6950 P.3          1 NAP1001   0.0000
    46 O1X         10.3440    27.6880    16.9880 O.co2        1 NAP1001   0.0000
    47 O2X         10.4630    27.9180    14.4850 O.co2        1 NAP1001  -1.0000
    48 O3X         12.5080    27.2310    15.6700 O.co2        1 NAP1001  -1.0000
    49 H5B1        13.3450    23.6381    12.8455 H            1 NAP1001   0.0000
    50 H5B2        12.9545    22.3970    11.8586 H            1 NAP1001   0.0000
    51 H4B         10.6404    22.7831    12.2262 H            1 NAP1001   0.0000
    52 H3B         11.2242    25.3222    12.7595 H            1 NAP1001   0.0000
    53 H5           9.0243    25.2423    13.9150 H            1 NAP1001   0.0000
    54 H2B         12.3020    24.8962    14.7633 H            1 NAP1001   0.0000
    55 H1B         10.1401    23.0630    15.2625 H            1 NAP1001   0.0000
    56 H8A         13.8567    23.2782    16.1672 H            1 NAP1001   0.0000
    57 H6A1        11.9185    21.3687    21.7011 H            1 NAP1001   0.0000
    58 H6A2        13.2813    21.8236    20.7337 H            1 NAP1001   0.0000
    59 H2A          8.2658    21.6454    18.9692 H            1 NAP1001   0.0000
    60 H5D1        12.1354    19.7463     8.1971 H            1 NAP1001   0.0000
    61 H5D2        12.5048    20.1222     9.7427 H            1 NAP1001   0.0000
    62 H4D         12.6592    17.7359     9.3396 H            1 NAP1001   0.0000
    63 H3D         14.3703    19.1295    10.8015 H            1 NAP1001   0.0000
    64 H16         13.6336    17.2958    11.6863 H            1 NAP1001   0.0000
    65 H2D         16.0426    19.2604     9.2189 H            1 NAP1001   0.0000
    66 H18         16.8835    18.2922    11.1304 H            1 NAP1001   0.0000
    67 H1D         15.4790    16.5493     8.4417 H            1 NAP1001   0.0000
    68 H2N         15.8174    19.7480     6.8050 H            1 NAP1001   0.0000
    69 H7N1        16.2893    22.4107     4.4692 H            1 NAP1001   0.0000
    70 H7N2        15.4668    21.2666     5.4764 H            1 NAP1001   0.0000
    71 H4N         18.3199    18.2399     3.8380 H            1 NAP1001   0.0000
    72 H5N         18.2094    16.0787     4.8881 H            1 NAP1001   0.0000
    73 H6N         16.8783    15.7647     6.8769 H            1 NAP1001   0.0000
@<TRIPOS>BOND
     1    1    2      ar
     2    1    3      ar
     3    1    4       1
     4    1   23       1
     5    4    5       1
     6    5    6       1
     7    6    7       1
     8    6    8       1
     9    7   12       1
    10    8    9       1
    11    8   10       1
    12   10   11       1
    13   10   12       1
    14   11   45       1
    15   12   13       1
    16   13   14       1
    17   13   22       1
    18   14   15       2
    19   15   16       1
    20   16   17      ar
    21   16   22      ar
    22   17   18       1
    23   17   19      ar
    24   19   20      ar
    25   20   21      ar
    26   21   22      ar
    27   23   24       1
    28   24   25      ar
    29   24   26      ar
    30   24   27       1
    31   27   28       1
    32   28   29       1
    33   29   30       1
    34   29   31       1
    35   30   35       1
    36   31   32       1
    37   31   33       1
    38   33   34       1
    39   33   35       1
    40   35   36       1
    41   36   37      ar
    42   36   44      ar
    43   37   38      ar
    44   38   39       1
    45   38   42      ar
    46   39   40       2
    47   39   41      am
    48   42   43      ar
    49   43   44      ar
    50   45   46      ar
    51   45   47      ar
    52   45   48      ar
    53   43   72       1
    54    5   49       1
    55    5   50       1
    56    6   51       1
    57    8   52       1
    58    9   53       1
    59   10   54       1
    60   12   55       1
    61   14   56       1
    62   18   57       1
    63   18   58       1
    64   20   59       1
    65   44   73       1
    66   28   60       1
    67   28   61       1
    68   29   62       1
    69   31   63       1
    70   32   64       1
    71   33   65       1
    72   34   66       1
    73   35   67       1
    74   37   68       1
    75   41   69       1
    76   41   70       1
    77   42   71       1
@<TRIPOS>SUBSTRUCTURE
     1 NAP1001     1 GROUP             4 A     NAP     0 **** NAP A1001
