@<TRIPOS>MOLECULE
4n6h_EJ4_1_ligand
   56    63     1     0     0
SMALL
NO_CHARGES


@<TRIPOS>ATOM
     1 CAB         -6.2170   -65.8630    71.5100 C.2          1 EJ41219   0.0000
     2 CAC         -6.8570   -67.0210    71.1040 C.2          1 EJ41219   0.0000
     3 CAE         -7.7160   -68.8490    69.8180 C.3          1 EJ41219   0.0000
     4 CAF         -6.7520   -69.0270    68.7740 C.2          1 EJ41219   0.0000
     5 CAG         -5.5200   -69.6670    68.8950 C.2          1 EJ41219   0.0000
     6 CAH         -4.8560   -69.4920    67.7250 C.ar         1 EJ41219   0.0000
     7 CAI         -3.6160   -69.8700    67.3110 C.ar         1 EJ41219   0.0000
     8 CAJ         -3.1530   -69.5700    66.0210 C.ar         1 EJ41219   0.0000
     9 CAK         -3.9780   -68.8000    65.1880 C.ar         1 EJ41219   0.0000
    10 CAL         -5.2350   -68.4110    65.6570 C.ar         1 EJ41219   0.0000
    11 CAM         -5.6310   -68.7660    66.9030 C.ar         1 EJ41219   0.0000
    12 CAO         -5.0890   -70.3410    70.0880 C.3          1 EJ41219   0.0000
    13 CAP         -6.2310   -70.5970    71.0880 C.3          1 EJ41219   0.0000
    14 CAR         -5.7380   -70.8350    72.5040 C.3          1 EJ41219   0.0000
    15 CAT         -7.8760   -70.2150    73.4650 C.3          1 EJ41219   0.0000
    16 CAU         -8.3340   -69.6940    72.1470 C.3          1 EJ41219   0.0000
    17 CAV         -7.1990   -69.3510    71.1610 C.3          1 EJ41219   0.0000
    18 CAW         -6.4490   -68.2130    71.6690 C.2          1 EJ41219   0.0000
    19 CAX         -5.4660   -68.3450    72.5850 C.2          1 EJ41219   0.0000
    20 CAY         -4.8120   -67.1720    73.0070 C.2          1 EJ41219   0.0000
    21 CAZ         -5.1810   -65.9180    72.4600 C.2          1 EJ41219   0.0000
    22 NAN         -6.7660   -68.5140    67.5360 N.pl3        1 EJ41219   0.0000
    23 NAS         -6.8900   -71.3460    73.3550 N.4          1 EJ41219   1.0000
    24 OAA         -6.6150   -64.6770    70.9250 O.2          1 EJ41219   0.0000
    25 OAD         -7.8440   -67.2600    70.1540 O.3          1 EJ41219   0.0000
    26 OAQ         -6.9650   -71.8500    70.6610 O.3          1 EJ41219   0.0000
    27 CBA         -5.1360   -69.6390    73.0820 C.2          1 EJ41219   0.0000
    28 CBB         -6.5950   -71.8760    74.7000 C.3          1 EJ41219   0.0000
    29 CBC         -5.5530   -73.0170    74.6130 C.3          1 EJ41219   0.0000
    30 CBD         -4.0700   -72.7160    74.9220 C.3          1 EJ41219   0.0000
    31 CBE         -4.8990   -73.4520    75.9530 C.3          1 EJ41219   0.0000
    32 HAE         -8.5999   -69.2535    69.5832 H            1 EJ41219   0.0000
    33 HAI         -3.0222   -70.3723    67.9396 H            1 EJ41219   0.0000
    34 HAJ         -2.2618   -69.8953    65.7050 H            1 EJ41219   0.0000
    35 HAK         -3.6716   -68.5341    64.2740 H            1 EJ41219   0.0000
    36 HAL         -5.8418   -67.8711    65.0737 H            1 EJ41219   0.0000
    37 HAO1        -4.3940   -69.7792    70.5367 H            1 EJ41219   0.0000
    38 HAO2        -4.6903   -71.2208    69.8292 H            1 EJ41219   0.0000
    39 HAR         -5.0379   -71.5483    72.4715 H            1 EJ41219   0.0000
    40 HAT1        -8.6747   -70.5398    73.9715 H            1 EJ41219   0.0000
    41 HAT2        -7.4439   -69.4665    73.9681 H            1 EJ41219   0.0000
    42 HAU1        -8.8680   -68.8641    72.3085 H            1 EJ41219   0.0000
    43 HAU2        -8.9162   -70.3877    71.7229 H            1 EJ41219   0.0000
    44 HAY         -4.0865   -67.2238    73.6933 H            1 EJ41219   0.0000
    45 HAZ         -4.7110   -65.0828    72.7456 H            1 EJ41219   0.0000
    46 HAN         -7.5330   -68.0074    67.1422 H            1 EJ41219   0.0000
    47 HAQ         -6.3293   -72.4669    70.1969 H            1 EJ41219   0.0000
    48 HBA         -4.4845   -69.7280    73.8354 H            1 EJ41219   0.0000
    49 HBB1        -7.4373   -72.2292    75.1071 H            1 EJ41219   0.0000
    50 HBB2        -6.2314   -71.1405    75.2717 H            1 EJ41219   0.0000
    51 HBC         -5.7345   -73.7404    73.9468 H            1 EJ41219   0.0000
    52 HBD1        -3.7794   -71.7753    75.0969 H            1 EJ41219   0.0000
    53 HBD2        -3.3501   -73.2003    74.4248 H            1 EJ41219   0.0000
    54 HBE1        -4.7266   -74.4205    76.1327 H            1 EJ41219   0.0000
    55 HBE2        -5.1559   -72.9955    76.8048 H            1 EJ41219   0.0000
    56 HAS         -7.3360   -72.0780    72.8400 H            1 EJ41219   0.0000
@<TRIPOS>BOND
     1    1    2       1
     2    1   21       1
     3    1   24       2
     4    2   18       2
     5    2   25       1
     6    3    4       1
     7    3   17       1
     8    3   25       1
     9    4    5       2
    10    4   22       1
    11    5    6       1
    12    5   12       1
    13    6    7      ar
    14    6   11      ar
    15    7    8      ar
    16    8    9      ar
    17    9   10      ar
    18   10   11      ar
    19   11   22       1
    20   12   13       1
    21   13   14       1
    22   13   17       1
    23   13   26       1
    24   14   23       1
    25   14   27       1
    26   15   16       1
    27   15   23       1
    28   16   17       1
    29   17   18       1
    30   18   19       1
    31   19   20       1
    32   19   27       2
    33   20   21       2
    34   23   28       1
    35   28   29       1
    36   29   30       1
    37   29   31       1
    38   30   31       1
    39    3   32       1
    40    7   33       1
    41    8   34       1
    42    9   35       1
    43   10   36       1
    44   12   37       1
    45   12   38       1
    46   14   39       1
    47   15   40       1
    48   15   41       1
    49   16   42       1
    50   16   43       1
    51   20   44       1
    52   21   45       1
    53   22   46       1
    54   26   47       1
    55   27   48       1
    56   28   49       1
    57   28   50       1
    58   29   51       1
    59   30   52       1
    60   30   53       1
    61   31   54       1
    62   31   55       1
    63   23   56       1
@<TRIPOS>SUBSTRUCTURE
     1 EJ41219     1 GROUP             4 A     EJ4     0 **** EJ4 A1219
