@<TRIPOS>MOLECULE
4zm3_PLP_4_ligand
   25    25     1     0     0
SMALL
NO_CHARGES


@<TRIPOS>ATOM
     1 N1          15.3750    -0.8100    53.7630 N.ar         1 PLP501   1.0000
     2 C2          14.5090    -0.4900    52.7700 C.ar         1 PLP501   0.0000
     3 C2A         14.8440    -0.8170    51.3330 C.3          1 PLP501   0.0000
     4 C3          13.2250     0.1500    53.0910 C.ar         1 PLP501   0.0000
     5 O3          12.3540     0.4780    52.1340 O.3          1 PLP501   0.0000
     6 C4          12.9040     0.4420    54.4800 C.ar         1 PLP501   0.0000
     7 C4A         11.6710     1.1640    54.8470 C.2          1 PLP501   0.0000
     8 O4A         11.0730     1.7300    53.9570 O.2          1 PLP501   0.0000
     9 C5          13.9460     0.0540    55.4750 C.ar         1 PLP501   0.0000
    10 C6          15.1300    -0.5590    55.0630 C.ar         1 PLP501   0.0000
    11 C5A         13.6870     0.3310    56.9210 C.3          1 PLP501   0.0000
    12 O4P         12.4360    -0.2600    57.2950 O.3          1 PLP501   0.0000
    13 P           11.5720     0.2260    58.6020 P.3          1 PLP501   0.0000
    14 O1P         10.7670     1.3920    58.0760 O.co2        1 PLP501   0.0000
    15 O2P         12.5460     0.5860    59.7230 O.co2        1 PLP501  -1.0000
    16 O3P         10.8110    -1.0910    58.8680 O.co2        1 PLP501  -1.0000
    17 H2A1        14.0990    -0.5126    50.7395 H            1 PLP501   0.0000
    18 H2A2        15.6892    -0.3500    51.0732 H            1 PLP501   0.0000
    19 H2A3        14.9655    -1.8048    51.2355 H            1 PLP501   0.0000
    20 H4          11.4863     0.9127    52.3752 H            1 PLP501   0.0000
    21 H4A         11.3419     1.1857    55.7911 H            1 PLP501   0.0000
    22 H6          15.8112    -0.8174    55.7480 H            1 PLP501   0.0000
    23 H5A1        13.6488     1.3189    57.0711 H            1 PLP501   0.0000
    24 H5A2        14.4216    -0.0620    57.4740 H            1 PLP501   0.0000
    25 H9          16.2371    -1.2537    53.5181 H            1 PLP501   0.0000
@<TRIPOS>BOND
     1    1    2      ar
     2    1   10      ar
     3    2    3       1
     4    2    4      ar
     5    4    5       1
     6    4    6      ar
     7    6    7       1
     8    6    9      ar
     9    7    8       2
    10    9   10      ar
    11    9   11       1
    12   11   12       1
    13   12   13       1
    14   13   14      ar
    15   13   15      ar
    16   13   16      ar
    17    3   17       1
    18    3   18       1
    19    3   19       1
    20    5   20       1
    21    7   21       1
    22   10   22       1
    23   11   23       1
    24   11   24       1
    25    1   25       1
@<TRIPOS>SUBSTRUCTURE
     1 PLP501      1 GROUP             4 D     PLP     0 **** PLP D 501
