@<TRIPOS>MOLECULE
4dna_FAD_2_ligand
   84    89     1     0     0
SMALL
NO_CHARGES


@<TRIPOS>ATOM
     1 PA         -22.6230    -2.4260    16.1930 P.3          1 FAD500   0.0000
     2 O1A        -23.6090    -1.6810    15.3300 O.co2        1 FAD500   0.0000
     3 O2A        -22.0690    -1.7810    17.4510 O.co2        1 FAD500  -1.0000
     4 O5B        -21.3860    -2.9520    15.2970 O.3          1 FAD500   0.0000
     5 C5B        -21.5720    -3.2970    13.9350 C.3          1 FAD500   0.0000
     6 C4B        -20.6080    -2.5370    13.0380 C.3          1 FAD500   0.0000
     7 O4B        -20.2140    -3.4010    11.9680 O.3          1 FAD500   0.0000
     8 C3B        -21.2560    -1.3160    12.4040 C.3          1 FAD500   0.0000
     9 O3B        -20.4780    -0.1550    12.7090 O.3          1 FAD500   0.0000
    10 C2B        -21.2330    -1.5630    10.9100 C.3          1 FAD500   0.0000
    11 O2B        -20.7660    -0.4230    10.1800 O.3          1 FAD500   0.0000
    12 C1B        -20.2510    -2.7020    10.7260 C.3          1 FAD500   0.0000
    13 N9A        -20.6510    -3.6500     9.6650 N.pl3        1 FAD500   0.0000
    14 C8A        -21.9060    -4.0580     9.3730 C.2          1 FAD500   0.0000
    15 N7A        -21.8970    -4.9450     8.3490 N.2          1 FAD500   0.0000
    16 C5A        -20.6150    -5.1160     7.9870 C.ar         1 FAD500   0.0000
    17 C6A        -19.9010    -5.9160     6.9800 C.ar         1 FAD500   0.0000
    18 N6A        -20.5930    -6.7280     6.1430 N.pl3        1 FAD500   0.0000
    19 N1A        -18.5510    -5.8070     6.9350 N.ar         1 FAD500   0.0000
    20 C2A        -17.8550    -5.0060     7.7610 C.ar         1 FAD500   0.0000
    21 N3A        -18.4450    -4.2490     8.6910 N.ar         1 FAD500   0.0000
    22 C4A        -19.7920    -4.2650     8.8520 C.ar         1 FAD500   0.0000
    23 N1         -27.1740     0.6250    23.8630 N.2          1 FAD500   0.0000
    24 C2         -26.9840     0.7700    25.2040 C.2          1 FAD500   0.0000
    25 O2         -26.5280    -0.1960    25.8780 O.2          1 FAD500   0.0000
    26 N3         -27.2750     1.9320    25.8410 N.pl3        1 FAD500   0.0000
    27 C4         -27.7590     3.0220    25.2240 C.2          1 FAD500   0.0000
    28 O4         -28.0020     4.0640    25.8740 O.2          1 FAD500   0.0000
    29 C4X        -27.9950     2.9350    23.7610 C.2          1 FAD500   0.0000
    30 N5         -28.4900     3.9740    23.0440 N.2          1 FAD500   0.0000
    31 C5X        -28.7020     3.8750    21.7110 C.ar         1 FAD500   0.0000
    32 C6         -29.2060     4.9740    21.0090 C.ar         1 FAD500   0.0000
    33 C7         -29.4330     4.9060    19.6350 C.ar         1 FAD500   0.0000
    34 C7M        -29.9810     6.1030    18.9060 C.3          1 FAD500   0.0000
    35 C8         -29.1200     3.6360    18.9180 C.ar         1 FAD500   0.0000
    36 C8M        -29.3400     3.5100    17.4390 C.3          1 FAD500   0.0000
    37 C9         -28.6150     2.5400    19.6180 C.ar         1 FAD500   0.0000
    38 C9A        -28.3900     2.6060    20.9940 C.ar         1 FAD500   0.0000
    39 N10        -27.8660     1.5020    21.7180 N.pl3        1 FAD500   0.0000
    40 C10        -27.6690     1.6350    23.1090 C.2          1 FAD500   0.0000
    41 C1'        -27.5710     0.2260    21.0550 C.3          1 FAD500   0.0000
    42 C2'        -26.1040    -0.0930    20.8610 C.3          1 FAD500   0.0000
    43 O2'        -25.5720     0.8350    19.9270 O.3          1 FAD500   0.0000
    44 C3'        -26.0080    -1.4690    20.2260 C.3          1 FAD500   0.0000
    45 O3'        -26.9460    -2.3560    20.8670 O.3          1 FAD500   0.0000
    46 C4'        -24.5920    -2.0380    20.2510 C.3          1 FAD500   0.0000
    47 O4'        -23.7050    -1.2030    19.4900 O.3          1 FAD500   0.0000
    48 C5'        -24.5820    -3.4290    19.6440 C.3          1 FAD500   0.0000
    49 O5'        -23.2500    -3.7010    19.2740 O.3          1 FAD500   0.0000
    50 P          -22.8480    -4.5820    17.9970 P.3          1 FAD500   0.0000
    51 O1P        -21.3420    -4.5490    18.0440 O.co2        1 FAD500   0.0000
    52 O2P        -23.6240    -5.8780    17.9390 O.co2        1 FAD500  -1.0000
    53 O3P        -23.3520    -3.7630    16.7040 O.3          1 FAD500   0.0000
    54 H5B1       -22.5098    -3.0754    13.6676 H            1 FAD500   0.0000
    55 H5B2       -21.4166    -4.2785    13.8231 H            1 FAD500   0.0000
    56 H4B        -19.8036    -2.2595    13.5632 H            1 FAD500   0.0000
    57 H3B        -22.1954    -1.2065    12.7290 H            1 FAD500   0.0000
    58 H5         -19.7876    -0.0202    11.9982 H            1 FAD500   0.0000
    59 H2B        -22.1409    -1.8324    10.5889 H            1 FAD500   0.0000
    60 H7         -19.7729    -0.4774    10.0766 H            1 FAD500   0.0000
    61 H1B        -19.3442    -2.3332    10.5217 H            1 FAD500   0.0000
    62 H8A        -22.7292    -3.7474     9.8482 H            1 FAD500   0.0000
    63 H6A1       -20.1071    -7.2716     5.4586 H            1 FAD500   0.0000
    64 H6A2       -21.5892    -6.7832     6.2101 H            1 FAD500   0.0000
    65 H2A        -16.8591    -4.9757     7.6762 H            1 FAD500   0.0000
    66 H13        -27.1200     1.9795    26.8278 H            1 FAD500   0.0000
    67 H14        -29.4068     5.8218    21.4998 H            1 FAD500   0.0000
    68 H7M1       -30.0823     5.8846    17.9354 H            1 FAD500   0.0000
    69 H7M2       -30.8727     6.3463    19.2877 H            1 FAD500   0.0000
    70 H7M3       -29.3522     6.8735    19.0104 H            1 FAD500   0.0000
    71 H8M1       -29.0752     2.5934    17.1395 H            1 FAD500   0.0000
    72 H8M2       -30.3063     3.6623    17.2316 H            1 FAD500   0.0000
    73 H8M3       -28.7851     4.1904    16.9603 H            1 FAD500   0.0000
    74 H21        -28.4109     1.6936    19.1261 H            1 FAD500   0.0000
    75 H1'1       -28.0032     0.2418    20.1534 H            1 FAD500   0.0000
    76 H1'2       -27.9738    -0.5056    21.6050 H            1 FAD500   0.0000
    77 H2'        -25.6079    -0.0588    21.7286 H            1 FAD500   0.0000
    78 H25        -24.8248     0.4059    19.4195 H            1 FAD500   0.0000
    79 H3'        -26.2816    -1.3801    19.2683 H            1 FAD500   0.0000
    80 H27        -27.2520    -3.0472    20.2123 H            1 FAD500   0.0000
    81 H4'        -24.2711    -2.0869    21.1969 H            1 FAD500   0.0000
    82 H29        -23.3043    -1.7350    18.7441 H            1 FAD500   0.0000
    83 H5'1       -25.1757    -3.4581    18.8398 H            1 FAD500   0.0000
    84 H5'2       -24.8969    -4.1000    20.3153 H            1 FAD500   0.0000
@<TRIPOS>BOND
     1    1    2      ar
     2    1    3      ar
     3    1    4       1
     4    1   53       1
     5    4    5       1
     6    5    6       1
     7    6    7       1
     8    6    8       1
     9    7   12       1
    10    8    9       1
    11    8   10       1
    12   10   11       1
    13   10   12       1
    14   12   13       1
    15   13   14       1
    16   13   22       1
    17   14   15       2
    18   15   16       1
    19   16   17      ar
    20   16   22      ar
    21   17   18       1
    22   17   19      ar
    23   19   20      ar
    24   20   21      ar
    25   21   22      ar
    26   23   24       1
    27   23   40       2
    28   24   25       2
    29   24   26       1
    30   26   27       1
    31   27   28       2
    32   27   29       1
    33   29   30       2
    34   29   40       1
    35   30   31       1
    36   31   32      ar
    37   31   38      ar
    38   32   33      ar
    39   33   34       1
    40   33   35      ar
    41   35   36       1
    42   35   37      ar
    43   37   38      ar
    44   38   39       1
    45   39   40       1
    46   39   41       1
    47   41   42       1
    48   42   43       1
    49   42   44       1
    50   44   45       1
    51   44   46       1
    52   46   47       1
    53   46   48       1
    54   48   49       1
    55   49   50       1
    56   50   51      ar
    57   50   52      ar
    58   50   53       1
    59   48   84       1
    60    5   54       1
    61    5   55       1
    62    6   56       1
    63    8   57       1
    64    9   58       1
    65   10   59       1
    66   11   60       1
    67   12   61       1
    68   14   62       1
    69   18   63       1
    70   18   64       1
    71   20   65       1
    72   26   66       1
    73   32   67       1
    74   34   68       1
    75   34   69       1
    76   34   70       1
    77   36   71       1
    78   36   72       1
    79   36   73       1
    80   37   74       1
    81   41   75       1
    82   41   76       1
    83   42   77       1
    84   43   78       1
    85   44   79       1
    86   45   80       1
    87   46   81       1
    88   47   82       1
    89   48   83       1
@<TRIPOS>SUBSTRUCTURE
     1 FAD500      1 GROUP             4 B     FAD     0 **** FAD B 500
