@<TRIPOS>MOLECULE
2zl4_ALA_ALA_ALA_ALA_6_ligand
   43    42     4     0     0
SMALL
NO_CHARGES


@<TRIPOS>ATOM
     1 N           75.7900    76.7640   130.8420 N.4          1 ALA201   1.0000
     2 CA          76.1740    78.0080   130.1110 C.3          1 ALA201   0.0000
     3 C           74.9850    78.9570   130.0780 C.2          1 ALA201   0.0000
     4 O           73.8340    78.5170   130.1280 O.2          1 ALA201   0.0000
     5 CB          76.6070    77.6630   128.6880 C.3          1 ALA201   0.0000
     6 H1          75.5078    76.9978   131.7724 H            1 ALA201   0.0000
     7 H2          75.0320    76.3181   130.3659 H            1 ALA201   0.0000
     8 HA          76.9339    78.4490   130.5885 H            1 ALA201   0.0000
     9 HB1         76.8625    78.5005   128.2050 H            1 ALA201   0.0000
    10 HB2         77.3915    77.0437   128.7192 H            1 ALA201   0.0000
    11 HB3         75.8506    77.2189   128.2078 H            1 ALA201   0.0000
    12 N           75.2630    80.2540   129.9970 N.am         2 ALA202   0.0000
    13 CA          74.2100    81.2580   129.9540 C.3          2 ALA202   0.0000
    14 C           73.2200    80.8920   128.8580 C.2          2 ALA202   0.0000
    15 O           73.5980    80.4290   127.7820 O.2          2 ALA202   0.0000
    16 CB          74.8040    82.6370   129.6850 C.3          2 ALA202   0.0000
    17 H7          76.2185    80.5472   129.9648 H            2 ALA202   0.0000
    18 H8          73.7346    81.2720   130.8336 H            2 ALA202   0.0000
    19 H9          74.0707    83.3163   129.6580 H            2 ALA202   0.0000
    20 H10         75.4480    82.8704   130.4135 H            2 ALA202   0.0000
    21 H11         75.2827    82.6283   128.8071 H            2 ALA202   0.0000
    22 N           71.9420    81.0910   129.1320 N.am         3 ALA203   0.0000
    23 CA          70.9380    80.7600   128.1420 C.3          3 ALA203   0.0000
    24 C           69.8050    81.7490   128.1460 C.2          3 ALA203   0.0000
    25 O           69.5770    82.4740   129.1140 O.2          3 ALA203   0.0000
    26 CB          70.3910    79.3470   128.3780 C.3          3 ALA203   0.0000
    27 H12         71.6702    81.4678   130.0175 H            3 ALA203   0.0000
    28 H13         71.3691    80.7819   127.2400 H            3 ALA203   0.0000
    29 H14         69.7004    79.1370   127.6859 H            3 ALA203   0.0000
    30 H15         71.1382    78.6854   128.3148 H            3 ALA203   0.0000
    31 H16         69.9777    79.2971   129.2872 H            3 ALA203   0.0000
    32 N           69.1040    81.7710   127.0280 N.am         4 ALA204   0.0000
    33 CA          67.9530    82.6270   126.8460 C.3          4 ALA204   0.0000
    34 C           66.9490    81.6720   126.2280 C.2          4 ALA204   0.0000
    35 O           67.0960    81.3740   125.0230 O.co2        4 ALA204   0.0000
    36 CB          68.2820    83.7750   125.8900 C.3          4 ALA204   0.0000
    37 OXT         66.0460    81.2110   126.9570 O.co2        4 ALA204  -1.0000
    38 H17         69.3800    81.1716   126.2766 H            4 ALA204   0.0000
    39 H18         67.6231    82.9750   127.7235 H            4 ALA204   0.0000
    40 H19         67.4758    84.3556   125.7763 H            4 ALA204   0.0000
    41 H20         69.0330    84.3175   126.2665 H            4 ALA204   0.0000
    42 H21         68.5523    83.4024   125.0023 H            4 ALA204   0.0000
    43 H22         76.5730    76.1429   130.8773 H            4 ALA204   0.0000
@<TRIPOS>BOND
     1    1    2       1
     2    2    5       1
     3    2    3       1
     4    3    4       2
     5    1    6       1
     6    1    7       1
     7    2    8       1
     8    3   12      am
     9    5    9       1
    10    5   10       1
    11    5   11       1
    12   12   13       1
    13   13   16       1
    14   13   14       1
    15   14   15       2
    16   16   21       1
    17   12   17       1
    18   13   18       1
    19   14   22      am
    20   16   19       1
    21   16   20       1
    22   22   23       1
    23   23   26       1
    24   23   24       1
    25   24   25       2
    26   26   31       1
    27   22   27       1
    28   23   28       1
    29   24   32      am
    30   26   29       1
    31   26   30       1
    32   32   33       1
    33   33   36       1
    34   33   34       1
    35   34   35      ar
    36   34   37      ar
    37   36   42       1
    38   32   38       1
    39   33   39       1
    40   36   40       1
    41   36   41       1
    42    1   43       1
@<TRIPOS>SUBSTRUCTURE
     1 ALA201      1 RESIDUE           4 T     ALA     0 **** ALA T 201
     2 ALA202     12 RESIDUE           4 T     ALA     0 **** ALA T 202
     3 ALA203     22 RESIDUE           4 T     ALA     0 **** ALA T 203
     4 ALA204     32 RESIDUE           4 T     ALA     0 **** ALA T 204
