@<TRIPOS>MOLECULE
2f02_ATP_2_ligand
   43    45     1     0     0
SMALL
NO_CHARGES


@<TRIPOS>ATOM
     1 PG          55.2990    15.7890   -13.7530 P.3          1 ATP410   0.0000
     2 O1G         56.1720    16.0570   -12.5590 O.co2        1 ATP410   0.0000
     3 O2G         54.9040    14.3390   -13.9290 O.co2        1 ATP410  -1.0000
     4 O3G         54.1530    16.7580   -13.8890 O.co2        1 ATP410  -1.0000
     5 PB          56.0740    15.6280   -16.5420 P.3          1 ATP410   0.0000
     6 O1B         56.6310    14.2380   -16.7190 O.co2        1 ATP410   0.0000
     7 O2B         54.6570    15.8760   -17.0070 O.co2        1 ATP410  -1.0000
     8 O3B         56.3060    16.0960   -15.0060 O.3          1 ATP410   0.0000
     9 PA          58.5820    16.5220   -17.7600 P.3          1 ATP410   0.0000
    10 O1A         59.4360    16.0400   -16.6180 O.co2        1 ATP410   0.0000
    11 O2A         58.6210    15.7890   -19.0620 O.co2        1 ATP410  -1.0000
    12 O3A         57.0200    16.7000   -17.3080 O.3          1 ATP410   0.0000
    13 O5'         58.9950    18.0590   -17.9860 O.3          1 ATP410   0.0000
    14 C5'         58.5050    18.8140   -19.0870 C.3          1 ATP410   0.0000
    15 C4'         59.6310    19.5060   -19.8420 C.3          1 ATP410   0.0000
    16 O4'         60.3080    20.4480   -18.9990 O.3          1 ATP410   0.0000
    17 C3'         60.7340    18.6030   -20.3920 C.3          1 ATP410   0.0000
    18 O3'         60.3700    17.9820   -21.6300 O.3          1 ATP410   0.0000
    19 C2'         61.8830    19.6020   -20.5090 C.3          1 ATP410   0.0000
    20 O2'         61.7090    20.4720   -21.6370 O.3          1 ATP410   0.0000
    21 C1'         61.7200    20.4080   -19.2350 C.3          1 ATP410   0.0000
    22 N9          62.4420    19.7530   -18.1010 N.pl3        1 ATP410   0.0000
    23 C8          61.9180    18.9950   -17.1160 C.2          1 ATP410   0.0000
    24 N7          62.8830    18.5560   -16.2640 N.2          1 ATP410   0.0000
    25 C5          64.0500    19.0460   -16.6970 C.ar         1 ATP410   0.0000
    26 C6          65.4630    18.9710   -16.2530 C.ar         1 ATP410   0.0000
    27 N6          65.7860    18.2680   -15.1490 N.pl3        1 ATP410   0.0000
    28 N1          66.3880    19.6250   -16.9890 N.ar         1 ATP410   0.0000
    29 C2          66.0510    20.3230   -18.1000 C.ar         1 ATP410   0.0000
    30 N3          64.7800    20.4300   -18.5500 N.ar         1 ATP410   0.0000
    31 C4          63.7600    19.8240   -17.9050 C.ar         1 ATP410   0.0000
    32 H5'1        57.8691    19.5070   -18.7472 H            1 ATP410   0.0000
    33 H5'2        58.0250    18.1995   -19.7131 H            1 ATP410   0.0000
    34 H4'         59.2291    20.0075   -20.6082 H            1 ATP410   0.0000
    35 H3'         60.9639    17.9016   -19.7173 H            1 ATP410   0.0000
    36 H5          61.1221    17.4040   -21.9468 H            1 ATP410   0.0000
    37 H2'         62.7688    19.1388   -20.5378 H            1 ATP410   0.0000
    38 H7          61.6618    21.4201   -21.3226 H            1 ATP410   0.0000
    39 H1'         62.0692    21.3351   -19.3712 H            1 ATP410   0.0000
    40 H9          60.9451    18.7830   -17.0240 H            1 ATP410   0.0000
    41 H10         66.7387    18.2173   -14.8495 H            1 ATP410   0.0000
    42 H11         65.0729    17.7972   -14.6296 H            1 ATP410   0.0000
    43 H12         66.7772    20.7814   -18.6123 H            1 ATP410   0.0000
@<TRIPOS>BOND
     1    1    2      ar
     2    1    3      ar
     3    1    4      ar
     4    1    8       1
     5    5    6      ar
     6    5    7      ar
     7    5    8       1
     8    5   12       1
     9    9   10      ar
    10    9   11      ar
    11    9   12       1
    12    9   13       1
    13   13   14       1
    14   14   15       1
    15   15   16       1
    16   15   17       1
    17   16   21       1
    18   17   18       1
    19   17   19       1
    20   19   20       1
    21   19   21       1
    22   21   22       1
    23   22   23       1
    24   22   31       1
    25   23   24       2
    26   24   25       1
    27   25   26      ar
    28   25   31      ar
    29   26   27       1
    30   26   28      ar
    31   28   29      ar
    32   29   30      ar
    33   30   31      ar
    34   29   43       1
    35   27   42       1
    36   27   41       1
    37   23   40       1
    38   14   32       1
    39   14   33       1
    40   15   34       1
    41   17   35       1
    42   18   36       1
    43   19   37       1
    44   20   38       1
    45   21   39       1
@<TRIPOS>SUBSTRUCTURE
     1 ATP410      1 GROUP             4 B     ATP     0 **** ATP B 410
