@<TRIPOS>MOLECULE
3fwr_ADP_2_ligand
   39    41     1     0     0
SMALL
NO_CHARGES


@<TRIPOS>ATOM
     1 PB           5.8990    48.4000    40.9710 P.3          1 ADP221   0.0000
     2 O1B          5.7240    49.6260    41.7780 O.co2        1 ADP221   0.0000
     3 O2B          5.6560    47.0940    41.9290 O.co2        1 ADP221  -1.0000
     4 O3B          4.8180    48.2450    39.7460 O.co2        1 ADP221  -1.0000
     5 PA           8.7510    47.8390    40.8120 P.3          1 ADP221   0.0000
     6 O1A          9.7800    47.8360    39.7340 O.co2        1 ADP221   0.0000
     7 O2A          8.5850    46.6030    41.6050 O.co2        1 ADP221  -1.0000
     8 O3A          7.3400    48.2360    40.1800 O.3          1 ADP221   0.0000
     9 O5'          9.1060    49.1320    41.7290 O.3          1 ADP221   0.0000
    10 C5'          8.7780    49.2860    43.1140 C.3          1 ADP221   0.0000
    11 C4'          9.1580    50.6810    43.5920 C.3          1 ADP221   0.0000
    12 O4'         10.6090    50.7090    43.5920 O.3          1 ADP221   0.0000
    13 C3'          8.7120    51.7470    42.5960 C.3          1 ADP221   0.0000
    14 O3'          8.3920    52.8850    43.3510 O.3          1 ADP221   0.0000
    15 C2'          9.9210    52.0870    41.7370 C.3          1 ADP221   0.0000
    16 O2'         10.0080    53.5060    41.5040 O.3          1 ADP221   0.0000
    17 C1'         11.1020    51.6760    42.6080 C.3          1 ADP221   0.0000
    18 N9          12.1340    51.0530    41.7260 N.pl3        1 ADP221   0.0000
    19 C8          11.9360    50.3100    40.6130 C.2          1 ADP221   0.0000
    20 N7          13.1150    49.9220    40.0960 N.2          1 ADP221   0.0000
    21 C5          14.0490    50.4560    40.8720 C.ar         1 ADP221   0.0000
    22 C6          15.4200    50.4330    40.8520 C.ar         1 ADP221   0.0000
    23 N6          16.0740    49.7750    39.8900 N.pl3        1 ADP221   0.0000
    24 N1          16.0920    51.0960    41.8070 N.ar         1 ADP221   0.0000
    25 C2          15.4900    51.7710    42.7710 C.ar         1 ADP221   0.0000
    26 N3          14.1840    51.8030    42.8190 N.ar         1 ADP221   0.0000
    27 C4          13.4450    51.1680    41.8910 C.ar         1 ADP221   0.0000
    28 H5'1         9.2781    48.6056    43.6496 H            1 ADP221   0.0000
    29 H5'2         7.7950    49.1507    43.2377 H            1 ADP221   0.0000
    30 H4'          8.7924    50.8629    44.5048 H            1 ADP221   0.0000
    31 H3'          7.9382    51.4383    42.0429 H            1 ADP221   0.0000
    32 H5           7.6768    53.4048    42.8837 H            1 ADP221   0.0000
    33 H2'          9.9098    51.5777    40.8765 H            1 ADP221   0.0000
    34 H7           9.1828    53.8177    41.0329 H            1 ADP221   0.0000
    35 H1'         11.4827    52.4759    43.0719 H            1 ADP221   0.0000
    36 H9          11.0410    50.0820    40.2297 H            1 ADP221   0.0000
    37 H10         17.0739    49.7634    39.8831 H            1 ADP221   0.0000
    38 H11         15.5634    49.2942    39.1771 H            1 ADP221   0.0000
    39 H12         16.0305    52.2544    43.4596 H            1 ADP221   0.0000
@<TRIPOS>BOND
     1    1    2      ar
     2    1    3      ar
     3    1    4      ar
     4    1    8       1
     5    5    6      ar
     6    5    7      ar
     7    5    8       1
     8    5    9       1
     9    9   10       1
    10   10   11       1
    11   11   12       1
    12   11   13       1
    13   12   17       1
    14   13   14       1
    15   13   15       1
    16   15   16       1
    17   15   17       1
    18   17   18       1
    19   18   19       1
    20   18   27       1
    21   19   20       2
    22   20   21       1
    23   21   22      ar
    24   21   27      ar
    25   22   23       1
    26   22   24      ar
    27   24   25      ar
    28   25   26      ar
    29   26   27      ar
    30   25   39       1
    31   23   38       1
    32   23   37       1
    33   10   28       1
    34   10   29       1
    35   11   30       1
    36   13   31       1
    37   14   32       1
    38   15   33       1
    39   16   34       1
    40   17   35       1
    41   19   36       1
@<TRIPOS>SUBSTRUCTURE
     1 ADP221      1 GROUP             4 B     ADP     0 **** ADP B 221
