@<TRIPOS>MOLECULE
3g49_NAP_3_ligand
   73    77     1     0     0
SMALL
NO_CHARGES


@<TRIPOS>ATOM
     1 PA         -17.0380    -6.9590    23.2050 P.3          1 NAP2000   0.0000
     2 O1A        -16.4050    -8.2560    22.6900 O.co2        1 NAP2000   0.0000
     3 O2A        -17.6000    -6.7670    24.6110 O.co2        1 NAP2000  -1.0000
     4 O5B        -18.2170    -6.8600    22.0950 O.3          1 NAP2000   0.0000
     5 C5B        -18.0490    -6.4410    20.8070 C.3          1 NAP2000   0.0000
     6 C4B        -19.4220    -6.2120    20.2330 C.3          1 NAP2000   0.0000
     7 O4B        -19.2450    -6.2950    18.7980 O.3          1 NAP2000   0.0000
     8 C3B        -20.4570    -7.2740    20.6290 C.3          1 NAP2000   0.0000
     9 O3B        -21.7450    -6.6110    20.6210 O.3          1 NAP2000   0.0000
    10 C2B        -20.6720    -8.1670    19.4760 C.3          1 NAP2000   0.0000
    11 O2B        -21.9710    -8.6930    19.2590 O.3          1 NAP2000   0.0000
    12 C1B        -20.0770    -7.3410    18.3330 C.3          1 NAP2000   0.0000
    13 N9A        -19.4820    -8.1850    17.3250 N.pl3        1 NAP2000   0.0000
    14 C8A        -18.4940    -9.0730    17.4910 C.2          1 NAP2000   0.0000
    15 N7A        -18.2740    -9.6030    16.2540 N.2          1 NAP2000   0.0000
    16 C5A        -19.1100    -9.0230    15.3680 C.ar         1 NAP2000   0.0000
    17 C6A        -19.4580    -9.1430    14.0200 C.ar         1 NAP2000   0.0000
    18 N6A        -18.7570   -10.0100    13.2700 N.pl3        1 NAP2000   0.0000
    19 N1A        -20.4650    -8.3670    13.4200 N.ar         1 NAP2000   0.0000
    20 C2A        -21.1330    -7.4710    14.1390 C.ar         1 NAP2000   0.0000
    21 N3A        -20.9260    -7.3400    15.4740 N.ar         1 NAP2000   0.0000
    22 C4A        -19.8460    -8.1470    16.0600 C.ar         1 NAP2000   0.0000
    23 O3         -16.1300    -5.6880    22.8470 O.3          1 NAP2000   0.0000
    24 PN         -15.6570    -4.6160    23.8910 P.3          1 NAP2000   0.0000
    25 O1N        -14.5690    -5.2790    24.7900 O.co2        1 NAP2000   0.0000
    26 O2N        -16.8730    -3.9480    24.4840 O.co2        1 NAP2000  -1.0000
    27 O5D        -15.0490    -3.5320    22.7900 O.3          1 NAP2000   0.0000
    28 C5D        -15.7230    -2.4110    22.1780 C.3          1 NAP2000   0.0000
    29 C4D        -14.7280    -1.6330    21.3670 C.3          1 NAP2000   0.0000
    30 O4D        -13.7500    -1.2520    22.3020 O.3          1 NAP2000   0.0000
    31 C3D        -14.0060    -2.4080    20.2800 C.3          1 NAP2000   0.0000
    32 O3D        -13.9400    -1.5950    19.0600 O.3          1 NAP2000   0.0000
    33 C2D        -12.5580    -2.5730    20.7530 C.3          1 NAP2000   0.0000
    34 O2D        -11.4600    -2.4460    19.8730 O.3          1 NAP2000   0.0000
    35 C1D        -12.4750    -1.5740    21.8530 C.3          1 NAP2000   0.0000
    36 N1N        -11.4600    -1.6810    22.8680 N.ar         1 NAP2000   1.0000
    37 C2N        -11.7110    -2.5110    23.8720 C.ar         1 NAP2000   0.0000
    38 C3N        -10.7940    -2.6030    24.9070 C.ar         1 NAP2000   0.0000
    39 C7N        -11.1770    -3.4940    26.0300 C.2          1 NAP2000   0.0000
    40 O7N        -12.3426    -3.8142    26.0726 O.2          1 NAP2000   0.0000
    41 N7N        -10.2513    -3.8424    26.9814 N.am         1 NAP2000   0.0000
    42 C4N         -9.6360    -1.8340    24.8890 C.ar         1 NAP2000   0.0000
    43 C5N         -9.3540    -1.0160    23.7960 C.ar         1 NAP2000   0.0000
    44 C6N        -10.3050    -0.9200    22.7920 C.ar         1 NAP2000   0.0000
    45 P2B        -22.1750   -10.1570    18.5610 P.3          1 NAP2000   0.0000
    46 O1X        -21.9850    -9.8300    17.1190 O.co2        1 NAP2000   0.0000
    47 O2X        -21.2590   -11.3230    18.9070 O.co2        1 NAP2000  -1.0000
    48 O3X        -23.5960   -10.2550    19.0690 O.co2        1 NAP2000  -1.0000
    49 H5B1       -17.5687    -7.1410    20.2785 H            1 NAP2000   0.0000
    50 H5B2       -17.5234    -5.5904    20.7888 H            1 NAP2000   0.0000
    51 H4B        -19.7513    -5.3021    20.4854 H            1 NAP2000   0.0000
    52 H3B        -20.2477    -7.7511    21.4826 H            1 NAP2000   0.0000
    53 H5         -22.4580    -7.2648    20.8742 H            1 NAP2000   0.0000
    54 H2B        -20.0654    -8.9512    19.6063 H            1 NAP2000   0.0000
    55 H1B        -20.8532    -6.8935    17.8888 H            1 NAP2000   0.0000
    56 H8A        -18.0186    -9.2994    18.3411 H            1 NAP2000   0.0000
    57 H6A1       -18.9762   -10.1239    12.3010 H            1 NAP2000   0.0000
    58 H6A2       -18.0161   -10.5413    13.6808 H            1 NAP2000   0.0000
    59 H2A        -21.8021    -6.8810    13.6871 H            1 NAP2000   0.0000
    60 H5D1       -16.1108    -1.8234    22.8882 H            1 NAP2000   0.0000
    61 H5D2       -16.4553    -2.7429    21.5834 H            1 NAP2000   0.0000
    62 H4D        -15.1636    -0.8216    20.9772 H            1 NAP2000   0.0000
    63 H3D        -14.4400    -3.2926    20.1092 H            1 NAP2000   0.0000
    64 H16        -14.8668    -1.3771    18.7541 H            1 NAP2000   0.0000
    65 H2D        -12.4904    -3.4772    21.1748 H            1 NAP2000   0.0000
    66 H18        -10.7104    -3.0275    20.1892 H            1 NAP2000   0.0000
    67 H1D        -12.2039    -0.7433    21.3668 H            1 NAP2000   0.0000
    68 H2N        -12.5466    -3.0602    23.8818 H            1 NAP2000   0.0000
    69 H7N1       -10.5381    -4.3423    27.7987 H            1 NAP2000   0.0000
    70 H7N2        -9.2900    -3.5964    26.8575 H            1 NAP2000   0.0000
    71 H4N         -9.0033    -1.8677    25.6626 H            1 NAP2000   0.0000
    72 H5N         -8.4914    -0.5135    23.7379 H            1 NAP2000   0.0000
    73 H6N        -10.1581    -0.3049    22.0173 H            1 NAP2000   0.0000
@<TRIPOS>BOND
     1    1    2      ar
     2    1    3      ar
     3    1    4       1
     4    1   23       1
     5    4    5       1
     6    5    6       1
     7    6    7       1
     8    6    8       1
     9    7   12       1
    10    8    9       1
    11    8   10       1
    12   10   11       1
    13   10   12       1
    14   11   45       1
    15   12   13       1
    16   13   14       1
    17   13   22       1
    18   14   15       2
    19   15   16       1
    20   16   17      ar
    21   16   22      ar
    22   17   18       1
    23   17   19      ar
    24   19   20      ar
    25   20   21      ar
    26   21   22      ar
    27   23   24       1
    28   24   25      ar
    29   24   26      ar
    30   24   27       1
    31   27   28       1
    32   28   29       1
    33   29   30       1
    34   29   31       1
    35   30   35       1
    36   31   32       1
    37   31   33       1
    38   33   34       1
    39   33   35       1
    40   35   36       1
    41   36   37      ar
    42   36   44      ar
    43   37   38      ar
    44   38   39       1
    45   38   42      ar
    46   39   40       2
    47   39   41      am
    48   42   43      ar
    49   43   44      ar
    50   45   46      ar
    51   45   47      ar
    52   45   48      ar
    53   43   72       1
    54    5   49       1
    55    5   50       1
    56    6   51       1
    57    8   52       1
    58    9   53       1
    59   10   54       1
    60   12   55       1
    61   14   56       1
    62   18   57       1
    63   18   58       1
    64   20   59       1
    65   44   73       1
    66   28   60       1
    67   28   61       1
    68   29   62       1
    69   31   63       1
    70   32   64       1
    71   33   65       1
    72   34   66       1
    73   35   67       1
    74   37   68       1
    75   41   69       1
    76   41   70       1
    77   42   71       1
@<TRIPOS>SUBSTRUCTURE
     1 NAP2000     1 GROUP             4 C     NAP     0 **** NAP C2000
