@<TRIPOS>MOLECULE
2fhj_H4Z_5_ligand
   33    34     1     0     0
SMALL
NO_CHARGES


@<TRIPOS>ATOM
     1 N1          -3.8010    60.1210    89.4550 N.4          1 H4Z904   1.0000
     2 C17         -2.7960    59.7650    88.4580 C.3          1 H4Z904   0.0000
     3 C18         -1.8960    60.9290    87.9310 C.3          1 H4Z904   0.0000
     4 C19         -3.4900    59.0810    87.2750 C.2          1 H4Z904   0.0000
     5 N2          -4.7570    59.6920    86.7650 N.am         1 H4Z904   0.0000
     6 C20         -5.7070    58.6400    86.4020 C.2          1 H4Z904   0.0000
     7 C21         -5.2750    57.4400    85.9250 C.2          1 H4Z904   0.0000
     8 N3          -6.2900    56.4420    85.6060 N.2          1 H4Z904   0.0000
     9 C22         -7.6180    56.7020    85.7780 C.2          1 H4Z904   0.0000
    10 N4          -8.5110    55.7830    85.4800 N.pl3        1 H4Z904   0.0000
    11 N5          -8.0520    57.8760    86.2380 N.pl3        1 H4Z904   0.0000
    12 C23         -7.1980    58.8560    86.5580 C.2          1 H4Z904   0.0000
    13 O12         -7.6370    59.9240    86.9740 O.3          1 H4Z904   0.0000
    14 N6          -3.8450    57.1430    85.7370 N.2          1 H4Z904   0.0000
    15 C24         -3.0270    58.3040    86.0560 C.2          1 H4Z904   0.0000
    16 C25         -1.9030    58.6480    85.0830 C.3          1 H4Z904   0.0000
    17 C31         -4.5260    61.1530    86.6320 C.2          1 H4Z904   0.0000
    18 O17         -4.9340    61.9610    87.4770 O.2          1 H4Z904   0.0000
    19 H1          -4.3141    59.3038    89.7176 H            1 H4Z904   0.0000
    20 H2          -3.3499    60.5046    90.2608 H            1 H4Z904   0.0000
    21 H3          -2.1900    59.0888    88.8770 H            1 H4Z904   0.0000
    22 H4          -1.2490    60.5714    87.2575 H            1 H4Z904   0.0000
    23 H5          -2.4704    61.6271    87.5035 H            1 H4Z904   0.0000
    24 H6          -1.3927    61.3332    88.6948 H            1 H4Z904   0.0000
    25 H7          -9.4848    55.9727    85.6057 H            1 H4Z904   0.0000
    26 H8          -8.2160    54.8948    85.1277 H            1 H4Z904   0.0000
    27 H9          -8.6235    60.0547    87.0727 H            1 H4Z904   0.0000
    28 H10         -1.8412    57.9386    84.3809 H            1 H4Z904   0.0000
    29 H11         -2.0944    59.5292    84.6507 H            1 H4Z904   0.0000
    30 H12         -1.0368    58.7016    85.5798 H            1 H4Z904   0.0000
    31 H13         -4.0260    61.4945    85.8362 H            1 H4Z904   0.0000
    32 H14         -4.4275    60.7985    89.0696 H            1 H4Z904   0.0000
    33 H15         -9.0346    58.0273    86.3460 H            1 H4Z904   0.0000
@<TRIPOS>BOND
     1    1    2       1
     2    2    3       1
     3    2    4       1
     4    4    5       1
     5    4   15       2
     6    5    6       1
     7    5   17      am
     8    6    7       1
     9    6   12       2
    10    7    8       1
    11    7   14       2
    12    8    9       2
    13    9   10       1
    14    9   11       1
    15   11   12       1
    16   12   13       1
    17   14   15       1
    18   15   16       1
    19   17   18       2
    20    1   19       1
    21    1   20       1
    22    2   21       1
    23    3   22       1
    24    3   23       1
    25    3   24       1
    26    1   32       1
    27   10   25       1
    28   10   26       1
    29   13   27       1
    30   16   28       1
    31   16   29       1
    32   16   30       1
    33   17   31       1
    34   11   33       1
@<TRIPOS>SUBSTRUCTURE
     1 H4Z904      1 GROUP             4 C     H4Z     0 **** H4Z C 904
