@<TRIPOS>MOLECULE
2cci_ATP_2_ligand
   43    45     1     0     0
SMALL
NO_CHARGES


@<TRIPOS>ATOM
     1 PG          18.9970    26.6270    53.9480 P.3          1 ATP1297   0.0000
     2 O1G         17.9720    25.5440    54.1970 O.co2        1 ATP1297   0.0000
     3 O2G         19.4830    26.6950    52.5170 O.co2        1 ATP1297  -1.0000
     4 O3G         18.5910    27.9830    54.4980 O.co2        1 ATP1297  -1.0000
     5 PB          20.2680    25.3540    56.2070 P.3          1 ATP1297   0.0000
     6 O1B         21.2860    25.9160    57.1650 O.co2        1 ATP1297   0.0000
     7 O2B         18.8470    25.2740    56.7080 O.co2        1 ATP1297  -1.0000
     8 O3B         20.3040    26.2080    54.8280 O.3          1 ATP1297   0.0000
     9 PA          20.1000    22.9160    54.6390 P.3          1 ATP1297   0.0000
    10 O1A         18.7810    23.4790    54.1790 O.co2        1 ATP1297   0.0000
    11 O2A         20.1100    21.4820    55.1330 O.co2        1 ATP1297  -1.0000
    12 O3A         20.7850    23.8830    55.7520 O.3          1 ATP1297   0.0000
    13 O5'         21.1520    22.9850    53.4280 O.3          1 ATP1297   0.0000
    14 C5'         21.4680    24.2160    52.7930 C.3          1 ATP1297   0.0000
    15 C4'         21.3180    24.0740    51.2930 C.3          1 ATP1297   0.0000
    16 O4'         22.3210    23.1710    50.8370 O.3          1 ATP1297   0.0000
    17 C3'         19.9800    23.4860    50.8770 C.3          1 ATP1297   0.0000
    18 O3'         19.0730    24.5230    50.4980 O.3          1 ATP1297   0.0000
    19 C2'         20.3230    22.5990    49.7000 C.3          1 ATP1297   0.0000
    20 O2'         20.1720    23.3050    48.4640 O.3          1 ATP1297   0.0000
    21 C1'         21.7880    22.2450    49.8950 C.3          1 ATP1297   0.0000
    22 N9          21.8450    20.8750    50.4580 N.pl3        1 ATP1297   0.0000
    23 C8          21.6620    20.5520    51.7520 C.2          1 ATP1297   0.0000
    24 N7          21.7560    19.2160    51.9490 N.2          1 ATP1297   0.0000
    25 C5          22.0030    18.6550    50.7570 C.ar         1 ATP1297   0.0000
    26 C6          22.2160    17.2770    50.2690 C.ar         1 ATP1297   0.0000
    27 N6          22.1820    16.2280    51.1230 N.pl3        1 ATP1297   0.0000
    28 N1          22.4440    17.1220    48.9440 N.ar         1 ATP1297   0.0000
    29 C2          22.4840    18.1750    48.0990 C.ar         1 ATP1297   0.0000
    30 N3          22.3000    19.4520    48.4730 N.ar         1 ATP1297   0.0000
    31 C4          22.0610    19.7500    49.7700 C.ar         1 ATP1297   0.0000
    32 H5'1        22.4110    24.4686    53.0097 H            1 ATP1297   0.0000
    33 H5'2        20.8480    24.9281    53.1225 H            1 ATP1297   0.0000
    34 H4'         21.4441    24.9649    50.8566 H            1 ATP1297   0.0000
    35 H3'         19.5935    22.9414    51.6213 H            1 ATP1297   0.0000
    36 H5          18.1991    24.1191    50.2276 H            1 ATP1297   0.0000
    37 H2'         19.7581    21.7739    49.7050 H            1 ATP1297   0.0000
    38 H7          20.4040    22.6987    47.7033 H            1 ATP1297   0.0000
    39 H1'         22.2842    22.2942    49.0282 H            1 ATP1297   0.0000
    40 H9          21.4794    21.2160    52.4771 H            1 ATP1297   0.0000
    41 H10         22.3276    15.2997    50.7808 H            1 ATP1297   0.0000
    42 H11         22.0112    16.3810    52.0964 H            1 ATP1297   0.0000
    43 H12         22.6622    17.9921    47.1322 H            1 ATP1297   0.0000
@<TRIPOS>BOND
     1    1    2      ar
     2    1    3      ar
     3    1    4      ar
     4    1    8       1
     5    5    6      ar
     6    5    7      ar
     7    5    8       1
     8    5   12       1
     9    9   10      ar
    10    9   11      ar
    11    9   12       1
    12    9   13       1
    13   13   14       1
    14   14   15       1
    15   15   16       1
    16   15   17       1
    17   16   21       1
    18   17   18       1
    19   17   19       1
    20   19   20       1
    21   19   21       1
    22   21   22       1
    23   22   23       1
    24   22   31       1
    25   23   24       2
    26   24   25       1
    27   25   26      ar
    28   25   31      ar
    29   26   27       1
    30   26   28      ar
    31   28   29      ar
    32   29   30      ar
    33   30   31      ar
    34   29   43       1
    35   27   42       1
    36   27   41       1
    37   23   40       1
    38   14   32       1
    39   14   33       1
    40   15   34       1
    41   17   35       1
    42   18   36       1
    43   19   37       1
    44   20   38       1
    45   21   39       1
@<TRIPOS>SUBSTRUCTURE
     1 ATP1297     1 GROUP             4 C     ATP     0 **** ATP C1297
