@<TRIPOS>MOLECULE
1hzl_ROM_1_ligand
  110   117     1     0     0
SMALL
NO_CHARGES


@<TRIPOS>ATOM
     1 C1'         -8.6400     8.4400    -7.0490 C.3          1 ROM111   0.0000
     2 C2'         -9.4770     7.8050    -8.1370 C.3          1 ROM111   0.0000
     3 C3'         -8.7550     8.0070    -9.4560 C.3          1 ROM111   0.0000
     4 C4'         -8.5570     9.5290    -9.6860 C.3          1 ROM111   0.0000
     5 C5'         -7.8800    10.1740    -8.4400 C.3          1 ROM111   0.0000
     6 O5'         -8.5660     9.8280    -7.2520 O.3          1 ROM111   0.0000
     7 O2'         -9.6300     6.4190    -7.8780 O.3          1 ROM111   0.0000
     8 O3'         -7.5020     7.3430    -9.4000 O.3          1 ROM111   0.0000
     9 N4'         -7.8350     9.8470   -10.9420 N.4          1 ROM111   1.0000
    10 C6D         -7.9000    11.6930    -8.6210 C.3          1 ROM111   0.0000
    11 O9          -9.2020     8.1990    -5.7610 O.3          1 ROM111   0.0000
    12 C6B         -6.4200     9.7280    -8.3450 C.3          1 ROM111   0.0000
    13 C4D         -8.7750     9.9970   -12.0470 C.3          1 ROM111   0.0000
    14 C4B         -6.8190     8.8500   -11.2710 C.3          1 ROM111   0.0000
    15 C'8         -0.1800     6.2460    -8.7910 C.ar         1 ROM111   0.0000
    16 C'7          0.2200     7.1770    -9.7400 C.ar         1 ROM111   0.0000
    17 C'6         -0.7010     7.6810   -10.6430 C.ar         1 ROM111   0.0000
    18 C'5         -2.0170     7.2550   -10.6000 C.ar         1 ROM111   0.0000
    19 C15         -2.4170     6.3210    -9.6480 C.ar         1 ROM111   0.0000
    20 C'9         -1.4900     5.8160    -8.7470 C.ar         1 ROM111   0.0000
    21 O'7          1.5470     7.5800    -9.8140 O.3          1 ROM111   0.0000
    22 C1A         -1.8780     4.7990    -7.7770 C.2          1 ROM111   0.0000
    23 O'4         -2.9380     7.7380   -11.5190 O.3          1 ROM111   0.0000
    24 C'3         -4.1260     7.1270   -11.6450 C.2          1 ROM111   0.0000
    25 C'2         -4.5500     6.1640   -10.6030 C.2          1 ROM111   0.0000
    26 N'1         -3.7300     5.9080    -9.6010 N.pl3        1 ROM111   0.0000
    27 C1B         -4.9100     7.3860   -12.7070 C.3          1 ROM111   0.0000
    28 O'2         -5.6350     5.6280   -10.6780 O.3          1 ROM111   0.0000
    29 O13         -2.9650     5.1730    -7.1450 O.3          1 ROM111   0.0000
    30 C7X          1.9320     8.1110    -8.5690 C.3          1 ROM111   0.0000
    31 O11         -1.2980     3.7530    -7.5630 O.2          1 ROM111   0.0000
    32 C3          -5.1810     6.0550    -5.8310 C.ar         1 ROM111   0.0000
    33 C2          -6.3640     6.4730    -5.2930 C.ar         1 ROM111   0.0000
    34 C7          -7.2630     5.6380    -4.7850 C.ar         1 ROM111   0.0000
    35 C6          -7.0450     4.2860    -4.7810 C.ar         1 ROM111   0.0000
    36 C5          -5.8540     3.7970    -5.3170 C.ar         1 ROM111   0.0000
    37 C4          -4.9020     4.6860    -5.8460 C.ar         1 ROM111   0.0000
    38 C1          -6.8150     7.8120    -5.1450 C.3          1 ROM111   0.0000
    39 C12         -6.1350     8.8350    -4.7110 C.3          1 ROM111   0.0000
    40 C9          -8.2640     7.8300    -4.7120 C.3          1 ROM111   0.0000
    41 C8          -8.5010     6.3760    -4.1960 C.3          1 ROM111   0.0000
    42 C13         -3.5910     4.1690    -6.3660 C.3          1 ROM111   0.0000
    43 C10         -8.1060     8.9380    -3.7190 C.2          1 ROM111   0.0000
    44 C11         -6.8790     9.5130    -3.8250 C.2          1 ROM111   0.0000
    45 C14         -2.6580     3.7660    -5.2220 C.3          1 ROM111   0.0000
    46 O15         -3.4030     3.6070    -4.0220 O.3          1 ROM111   0.0000
    47 C16         -2.8020     2.9330    -3.0580 C.2          1 ROM111   0.0000
    48 C17         -3.7630     2.1670    -2.1500 C.3          1 ROM111   0.0000
    49 C18         -4.2180     3.0810    -1.0030 C.3          1 ROM111   0.0000
    50 C20         -6.6480     3.4500    -1.4530 C.ar         1 ROM111   0.0000
    51 C21         -7.6850     4.2520    -1.8620 C.ar         1 ROM111   0.0000
    52 C22         -7.4940     5.5550    -2.2430 C.ar         1 ROM111   0.0000
    53 C23         -6.2210     6.0810    -2.2060 C.ar         1 ROM111   0.0000
    54 C24         -5.1540     5.2850    -1.7950 C.ar         1 ROM111   0.0000
    55 C19         -5.3680     3.9560    -1.4170 C.ar         1 ROM111   0.0000
    56 O25         -8.5560     6.3150    -2.7380 O.3          1 ROM111   0.0000
    57 N18         -4.5980     2.1430     0.0970 N.4          1 ROM111   1.0000
    58 O23         -6.0020     7.3930    -2.5800 O.3          1 ROM111   0.0000
    59 CL21        -9.2850     3.5970    -1.8980 Cl           1 ROM111   0.0000
    60 O16         -1.6010     2.9030    -2.8820 O.2          1 ROM111   0.0000
    61 H1'         -7.7174     8.0555    -7.0801 H            1 ROM111   0.0000
    62 H2'        -10.3750     8.2436    -8.1723 H            1 ROM111   0.0000
    63 H3'         -9.3034     7.6247   -10.1997 H            1 ROM111   0.0000
    64 H4'         -9.4685     9.9328    -9.7639 H            1 ROM111   0.0000
    65 H5         -10.4472     6.2723    -7.3206 H            1 ROM111   0.0000
    66 H6          -7.6078     6.4035    -9.7258 H            1 ROM111   0.0000
    67 H6D1        -7.4693    12.1286    -7.8306 H            1 ROM111   0.0000
    68 H6D2        -7.3976    11.9365    -9.4507 H            1 ROM111   0.0000
    69 H6D3        -8.8462    12.0068    -8.7000 H            1 ROM111   0.0000
    70 H6B1        -5.9950    10.1471    -7.5427 H            1 ROM111   0.0000
    71 H6B2        -6.3804     8.7323    -8.2613 H            1 ROM111   0.0000
    72 H6B3        -5.9301    10.0130    -9.1689 H            1 ROM111   0.0000
    73 H4D1        -8.2730    10.2108   -12.8850 H            1 ROM111   0.0000
    74 H4D2        -9.2826     9.1444   -12.1709 H            1 ROM111   0.0000
    75 H4D3        -9.4139    10.7386   -11.8428 H            1 ROM111   0.0000
    76 H4B1        -6.3621     9.1080   -12.1223 H            1 ROM111   0.0000
    77 H4B2        -6.1463     8.8034   -10.5326 H            1 ROM111   0.0000
    78 H4B3        -7.2531     7.9562   -11.3833 H            1 ROM111   0.0000
    79 H'8          0.4845     5.8855    -8.1364 H            1 ROM111   0.0000
    80 H'6         -0.4151     8.3529   -11.3263 H            1 ROM111   0.0000
    81 H'1         -4.0648     5.4100    -8.8011 H            1 ROM111   0.0000
    82 H1B1        -5.7504     6.8482   -12.6400 H            1 ROM111   0.0000
    83 H1B2        -5.1378     8.3596   -12.7236 H            1 ROM111   0.0000
    84 H1B3        -4.4247     7.1428   -13.5468 H            1 ROM111   0.0000
    85 H'2         -5.9212     4.9777    -9.9743 H            1 ROM111   0.0000
    86 H7X1         2.8871     8.4042    -8.6126 H            1 ROM111   0.0000
    87 H7X2         1.3524     8.8952    -8.3475 H            1 ROM111   0.0000
    88 H7X3         1.8302     7.4110    -7.8622 H            1 ROM111   0.0000
    89 H29         -4.5288     6.7138    -6.2059 H            1 ROM111   0.0000
    90 H30         -7.7270     3.6612    -4.4009 H            1 ROM111   0.0000
    91 H31         -5.6769     2.8128    -5.3251 H            1 ROM111   0.0000
    92 H32         -6.9181     8.0675    -6.1063 H            1 ROM111   0.0000
    93 H33         -5.9017     9.4319    -5.4786 H            1 ROM111   0.0000
    94 H34         -5.2962     8.5165    -4.2695 H            1 ROM111   0.0000
    95 H35         -9.3424     6.0042    -4.5882 H            1 ROM111   0.0000
    96 H36         -3.7623     3.3700    -6.9424 H            1 ROM111   0.0000
    97 H37         -8.8089     9.2179    -3.0651 H            1 ROM111   0.0000
    98 H38         -6.5765    10.3204    -3.3184 H            1 ROM111   0.0000
    99 H39         -1.9673     4.4773    -5.0915 H            1 ROM111   0.0000
   100 H40         -2.2082     2.9024    -5.4497 H            1 ROM111   0.0000
   101 H41         -3.2989     1.3651    -1.7737 H            1 ROM111   0.0000
   102 H42         -4.5594     1.8736    -2.6788 H            1 ROM111   0.0000
   103 H43         -3.4526     3.6522    -0.7064 H            1 ROM111   0.0000
   104 H44         -6.8217     2.5030    -1.1826 H            1 ROM111   0.0000
   105 H45         -4.2299     5.6663    -1.7702 H            1 ROM111   0.0000
   106 H46         -4.9091     2.6674     0.8896 H            1 ROM111   0.0000
   107 H47         -5.3345     1.5433    -0.2159 H            1 ROM111   0.0000
   108 H48         -6.7680     7.9625    -2.8782 H            1 ROM111   0.0000
   109 H49         -7.3718    10.7240   -10.8141 H            1 ROM111   0.0000
   110 H50         -3.8046     1.5908     0.3532 H            1 ROM111   0.0000
@<TRIPOS>BOND
     1    1    2       1
     2    1    6       1
     3    1   11       1
     4    2    3       1
     5    2    7       1
     6    3    4       1
     7    3    8       1
     8    4    5       1
     9    4    9       1
    10    5    6       1
    11    5   10       1
    12    5   12       1
    13    9   13       1
    14    9   14       1
    15   11   40       1
    16   15   16      ar
    17   15   20      ar
    18   16   17      ar
    19   16   21       1
    20   17   18      ar
    21   18   19      ar
    22   18   23       1
    23   19   20      ar
    24   19   26       1
    25   20   22       1
    26   21   30       1
    27   22   29       1
    28   22   31       2
    29   23   24       1
    30   24   25       2
    31   24   27       1
    32   25   26       1
    33   25   28       1
    34   29   42       1
    35   32   33      ar
    36   32   37      ar
    37   33   34      ar
    38   33   38       1
    39   34   35      ar
    40   34   41       1
    41   35   36      ar
    42   36   37      ar
    43   37   42       1
    44   38   39       1
    45   38   40       1
    46   39   44       1
    47   40   41       1
    48   40   43       1
    49   41   56       1
    50   42   45       1
    51   43   44       2
    52   45   46       1
    53   46   47       1
    54   47   48       1
    55   47   60       2
    56   48   49       1
    57   49   55       1
    58   49   57       1
    59   50   51      ar
    60   50   55      ar
    61   51   52      ar
    62   51   59       1
    63   52   53      ar
    64   52   56       1
    65   53   54      ar
    66   53   58       1
    67   54   55      ar
    68    1   61       1
    69    2   62       1
    70    3   63       1
    71    4   64       1
    72    7   65       1
    73    8   66       1
    74   10   67       1
    75   10   68       1
    76   10   69       1
    77   12   70       1
    78   12   71       1
    79   12   72       1
    80   13   73       1
    81   13   74       1
    82   13   75       1
    83   14   76       1
    84   14   77       1
    85   14   78       1
    86   15   79       1
    87   17   80       1
    88   26   81       1
    89   27   82       1
    90   27   83       1
    91   27   84       1
    92   28   85       1
    93   30   86       1
    94   30   87       1
    95   30   88       1
    96   32   89       1
    97   35   90       1
    98   36   91       1
    99   38   92       1
   100   39   93       1
   101   39   94       1
   102   41   95       1
   103   42   96       1
   104   43   97       1
   105   44   98       1
   106   45   99       1
   107   45  100       1
   108   48  101       1
   109   48  102       1
   110   49  103       1
   111   50  104       1
   112   54  105       1
   113   57  106       1
   114   57  107       1
   115   58  108       1
   116    9  109       1
   117   57  110       1
@<TRIPOS>SUBSTRUCTURE
     1 ROM111      1 GROUP             4 A     ROM     0 **** ROM A 111
