@<TRIPOS>MOLECULE
4coj_CTP_4_ligand
   41    42     1     0     0
SMALL
NO_CHARGES


@<TRIPOS>ATOM
     1 N1          -1.8650     8.2870    14.3680 N.pl3        1 CTP653   0.0000
     2 C2          -1.6430     7.9710    15.7250 C.2          1 CTP653   0.0000
     3 N3          -1.3920     8.9570    16.6140 N.2          1 CTP653   0.0000
     4 C4          -1.3550    10.2470    16.2160 C.2          1 CTP653   0.0000
     5 C5          -1.5740    10.5710    14.8850 C.2          1 CTP653   0.0000
     6 C6          -1.8310     9.5630    13.9680 C.2          1 CTP653   0.0000
     7 O2          -1.6730     6.7810    16.1110 O.2          1 CTP653   0.0000
     8 N4          -1.1020    11.2290    17.1130 N.pl3        1 CTP653   0.0000
     9 C1'         -2.1470     7.2370    13.3910 C.3          1 CTP653   0.0000
    10 C2'         -3.6300     7.2760    13.0750 C.3          1 CTP653   0.0000
    11 O2'         -4.1420     5.9460    12.9350 O.3          1 CTP653   0.0000
    12 C3'         -3.7140     8.0490    11.7750 C.3          1 CTP653   0.0000
    13 C4'         -2.3820     7.7380    11.1150 C.3          1 CTP653   0.0000
    14 O4'         -1.4500     7.4940    12.1710 O.3          1 CTP653   0.0000
    15 O3'         -4.8160     7.6530    10.9610 O.3          1 CTP653   0.0000
    16 C5'         -1.8780     8.8680    10.2420 C.3          1 CTP653   0.0000
    17 O5'         -0.4670     8.7610    10.1740 O.3          1 CTP653   0.0000
    18 PA           0.3150     9.6190     9.0730 P.3          1 CTP653   0.0000
    19 O1A          0.1540    11.0810     9.4170 O.co2        1 CTP653   0.0000
    20 O2A         -0.1260     9.0970     7.7260 O.co2        1 CTP653  -1.0000
    21 O3A          1.8360     9.1430     9.3220 O.3          1 CTP653   0.0000
    22 PB           3.0550    10.1850     9.4400 P.3          1 CTP653   0.0000
    23 O1B          2.9500    10.8960    10.7660 O.co2        1 CTP653   0.0000
    24 O2B          3.1390    11.0040     8.1750 O.co2        1 CTP653  -1.0000
    25 O3B          4.3290     9.2010     9.4380 O.3          1 CTP653   0.0000
    26 PG           4.7400     8.2740    10.6870 P.3          1 CTP653   0.0000
    27 O1G          4.3210     6.8820    10.2760 O.co2        1 CTP653   0.0000
    28 O2G          6.2370     8.4540    10.7570 O.co2        1 CTP653  -1.0000
    29 O3G          3.9830     8.8440    11.8690 O.co2        1 CTP653  -1.0000
    30 H1          -1.5467    11.5257    14.5886 H            1 CTP653   0.0000
    31 H2          -1.9910     9.7901    13.0074 H            1 CTP653   0.0000
    32 H3          -1.0752    12.1833    16.8154 H            1 CTP653   0.0000
    33 H4          -0.9419    11.0000    18.0732 H            1 CTP653   0.0000
    34 H1'         -1.8916     6.3421    13.7570 H            1 CTP653   0.0000
    35 H2'         -4.1235     7.7611    13.7969 H            1 CTP653   0.0000
    36 H7          -5.1194     5.9852    12.7271 H            1 CTP653   0.0000
    37 H3'         -3.7733     9.0283    11.9688 H            1 CTP653   0.0000
    38 H4'         -2.4749     6.9108    10.5609 H            1 CTP653   0.0000
    39 H10         -4.8209     8.1944    10.1202 H            1 CTP653   0.0000
    40 H5'1        -2.1342     9.7480    10.6419 H            1 CTP653   0.0000
    41 H5'2        -2.2702     8.7915     9.3253 H            1 CTP653   0.0000
@<TRIPOS>BOND
     1    1    2       1
     2    1    6       1
     3    1    9       1
     4    2    3       1
     5    2    7       2
     6    3    4       2
     7    4    5       1
     8    4    8       1
     9    5    6       2
    10    9   10       1
    11    9   14       1
    12   10   11       1
    13   10   12       1
    14   12   13       1
    15   12   15       1
    16   13   14       1
    17   13   16       1
    18   16   17       1
    19   17   18       1
    20   18   19      ar
    21   18   20      ar
    22   18   21       1
    23   21   22       1
    24   22   23      ar
    25   22   24      ar
    26   22   25       1
    27   25   26       1
    28   26   27      ar
    29   26   28      ar
    30   26   29      ar
    31    5   30       1
    32    6   31       1
    33    8   32       1
    34    8   33       1
    35    9   34       1
    36   10   35       1
    37   11   36       1
    38   12   37       1
    39   13   38       1
    40   15   39       1
    41   16   40       1
    42   16   41       1
@<TRIPOS>SUBSTRUCTURE
     1 CTP653      1 GROUP             4 B     CTP     0 **** CTP B 653
