@<TRIPOS>MOLECULE
3ckq_UPG_1_ligand
   58    60     1     0     0
SMALL
NO_CHARGES


@<TRIPOS>ATOM
     1 N1           6.9360    27.5320    14.5730 N.pl3        1 UPG332   0.0000
     2 C2           6.7820    28.8330    15.1210 C.2          1 UPG332   0.0000
     3 N3           6.7540    29.9090    14.3190 N.pl3        1 UPG332   0.0000
     4 C4           6.8700    29.7770    12.9890 C.2          1 UPG332   0.0000
     5 C5           7.0220    28.5120    12.4190 C.2          1 UPG332   0.0000
     6 C6           7.0550    27.3850    13.2410 C.2          1 UPG332   0.0000
     7 O2           6.6720    28.9950    16.3570 O.2          1 UPG332   0.0000
     8 O4           6.8400    30.7950    12.2650 O.2          1 UPG332   0.0000
     9 C1C          6.9620    26.3700    15.4820 C.3          1 UPG332   0.0000
    10 C2C          5.9040    25.3200    15.1560 C.3          1 UPG332   0.0000
    11 O2C          4.6580    25.6040    15.7990 O.3          1 UPG332   0.0000
    12 C3C          6.5250    24.0270    15.6540 C.3          1 UPG332   0.0000
    13 C4C          8.0280    24.2770    15.6170 C.3          1 UPG332   0.0000
    14 O4C          8.2240    25.6880    15.4670 O.3          1 UPG332   0.0000
    15 O3C          6.1300    23.7560    17.0030 O.3          1 UPG332   0.0000
    16 C5C          8.6870    23.5440    14.4550 C.3          1 UPG332   0.0000
    17 O5C          8.1190    24.0130    13.2290 O.3          1 UPG332   0.0000
    18 PA           7.9850    23.0350    11.9600 P.3          1 UPG332   0.0000
    19 O1A          7.1110    21.8520    12.2920 O.co2        1 UPG332   0.0000
    20 O2A          7.4520    23.7750    10.7530 O.co2        1 UPG332  -1.0000
    21 O3A          9.5150    22.5800    11.7720 O.3          1 UPG332   0.0000
    22 PB           9.9660    21.5510    10.6290 P.3          1 UPG332   0.0000
    23 O1B          9.3780    21.9590     9.2960 O.co2        1 UPG332   0.0000
    24 O2B          9.5410    20.1530    10.9970 O.co2        1 UPG332  -1.0000
    25 O3B         11.5720    21.7180    10.6330 O.3          1 UPG332   0.0000
    26 C1'         12.5230    20.9860    11.4260 C.3          1 UPG332   0.0000
    27 C2'         12.2330    20.9890    12.9300 C.3          1 UPG332   0.0000
    28 C3'         12.2350    22.4140    13.4880 C.3          1 UPG332   0.0000
    29 C4'         13.4660    23.2140    13.0530 C.3          1 UPG332   0.0000
    30 C5'         13.7880    23.0100    11.5660 C.3          1 UPG332   0.0000
    31 C6'         15.0920    23.6770    11.1240 C.3          1 UPG332   0.0000
    32 O2'         10.9850    20.3530    13.2180 O.3          1 UPG332   0.0000
    33 O3'         12.1740    22.3670    14.9160 O.3          1 UPG332   0.0000
    34 O4'         13.2210    24.6030    13.2970 O.3          1 UPG332   0.0000
    35 O5'         13.8050    21.6080    11.2490 O.3          1 UPG332   0.0000
    36 O6'         16.0280    23.7840    12.2060 O.3          1 UPG332   0.0000
    37 H1           6.6454    30.8197    14.7176 H            1 UPG332   0.0000
    38 H2           7.1067    28.4140    11.4274 H            1 UPG332   0.0000
    39 H3           7.1663    26.4745    12.8429 H            1 UPG332   0.0000
    40 H1C          6.7974    26.6989    16.4119 H            1 UPG332   0.0000
    41 H2C          5.7701    25.2712    14.1662 H            1 UPG332   0.0000
    42 H6           3.9920    24.8966    15.5624 H            1 UPG332   0.0000
    43 H3C          6.2797    23.2647    15.0551 H            1 UPG332   0.0000
    44 H4C          8.4374    23.9735    16.4774 H            1 UPG332   0.0000
    45 H9           6.4291    24.5046    17.5947 H            1 UPG332   0.0000
    46 H5C1         8.5273    22.5609    14.5445 H            1 UPG332   0.0000
    47 H5C2         9.6707    23.7236    14.4595 H            1 UPG332   0.0000
    48 H1'         12.5667    20.0415    11.1003 H            1 UPG332   0.0000
    49 H2'         12.9578    20.4743    13.3879 H            1 UPG332   0.0000
    50 H3'         11.4188    22.8847    13.1531 H            1 UPG332   0.0000
    51 H4'         14.2519    22.9224    13.5982 H            1 UPG332   0.0000
    52 H5'         13.0464    23.4262    11.0399 H            1 UPG332   0.0000
    53 H6'1        14.8869    24.5938    10.7814 H            1 UPG332   0.0000
    54 H6'2        15.5029    23.1322    10.3930 H            1 UPG332   0.0000
    55 H19         10.2471    20.8395    12.7502 H            1 UPG332   0.0000
    56 H20         11.3364    21.8996    15.1987 H            1 UPG332   0.0000
    57 H21         14.0859    25.0644    13.4946 H            1 UPG332   0.0000
    58 H6'         15.6276    24.3324    12.9401 H            1 UPG332   0.0000
@<TRIPOS>BOND
     1    1    2       1
     2    1    6       1
     3    1    9       1
     4    2    3       1
     5    2    7       2
     6    3    4       1
     7    4    5       1
     8    4    8       2
     9    5    6       2
    10    9   10       1
    11    9   14       1
    12   10   11       1
    13   10   12       1
    14   12   13       1
    15   12   15       1
    16   13   14       1
    17   13   16       1
    18   16   17       1
    19   17   18       1
    20   18   19      ar
    21   18   20      ar
    22   18   21       1
    23   21   22       1
    24   22   23      ar
    25   22   24      ar
    26   22   25       1
    27   25   26       1
    28   26   27       1
    29   26   35       1
    30   27   28       1
    31   27   32       1
    32   28   29       1
    33   28   33       1
    34   29   30       1
    35   29   34       1
    36   30   31       1
    37   30   35       1
    38   31   36       1
    39    3   37       1
    40    5   38       1
    41    6   39       1
    42    9   40       1
    43   10   41       1
    44   11   42       1
    45   12   43       1
    46   13   44       1
    47   15   45       1
    48   16   46       1
    49   16   47       1
    50   36   58       1
    51   34   57       1
    52   26   48       1
    53   27   49       1
    54   28   50       1
    55   29   51       1
    56   30   52       1
    57   31   53       1
    58   31   54       1
    59   32   55       1
    60   33   56       1
@<TRIPOS>SUBSTRUCTURE
     1 UPG332      1 GROUP             4 A     UPG     0 **** UPG A 332
