@<TRIPOS>MOLECULE
1tvv_CB3_1_ligand
   56    58     1     0     0
SMALL
NO_CHARGES


@<TRIPOS>ATOM
     1 N1          19.4530    47.5580   -52.4510 N.2          1 CB3318   0.0000
     2 C2          19.3090    46.2030   -52.5050 C.2          1 CB3318   0.0000
     3 NA2         19.8470    45.4490   -53.4410 N.pl3        1 CB3318   0.0000
     4 N3          18.5660    45.5450   -51.5900 N.pl3        1 CB3318   0.0000
     5 C4          17.9410    46.1980   -50.5870 C.2          1 CB3318   0.0000
     6 O4          17.2930    45.4600   -49.6020 O.2          1 CB3318   0.0000
     7 C4A         17.9790    47.6040   -50.5620 C.ar         1 CB3318   0.0000
     8 C5          17.2470    48.3190   -49.6230 C.ar         1 CB3318   0.0000
     9 C6          17.2640    49.7200   -49.5840 C.ar         1 CB3318   0.0000
    10 C7          18.0430    50.4100   -50.5390 C.ar         1 CB3318   0.0000
    11 C8          18.8010    49.7070   -51.5050 C.ar         1 CB3318   0.0000
    12 C8A         18.7700    48.2900   -51.5230 C.ar         1 CB3318   0.0000
    13 C9          16.6980    50.4080   -48.3990 C.3          1 CB3318   0.0000
    14 N10         16.5490    49.4580   -47.2600 N.pl3        1 CB3318   0.0000
    15 C11         19.9960    48.2240   -45.1630 C.ar         1 CB3318   0.0000
    16 C12         18.8070    47.4510   -45.0940 C.ar         1 CB3318   0.0000
    17 C13         17.6630    47.8630   -45.7960 C.ar         1 CB3318   0.0000
    18 C14         17.6730    49.0460   -46.5810 C.ar         1 CB3318   0.0000
    19 C15         18.8890    49.7870   -46.6670 C.ar         1 CB3318   0.0000
    20 C16         20.0430    49.3840   -45.9710 C.ar         1 CB3318   0.0000
    21 C           21.1380    47.9100   -44.3290 C.2          1 CB3318   0.0000
    22 O           22.1180    48.6500   -44.2180 O.2          1 CB3318   0.0000
    23 N           21.1040    46.7680   -43.6630 N.am         1 CB3318   0.0000
    24 CA          21.5830    45.5350   -44.2960 C.3          1 CB3318   0.0000
    25 CB          23.1120    45.4480   -44.2620 C.3          1 CB3318   0.0000
    26 CG          23.7370    45.7430   -42.9080 C.3          1 CB3318   0.0000
    27 CD          25.2500    45.6680   -42.9440 C.2          1 CB3318   0.0000
    28 OE1         25.8690    46.3930   -43.7590 O.co2        1 CB3318   0.0000
    29 OE2         25.8200    44.8710   -42.1670 O.co2        1 CB3318  -1.0000
    30 CT          20.9530    44.3180   -43.6270 C.2          1 CB3318   0.0000
    31 O1          20.0150    44.5170   -42.8210 O.co2        1 CB3318   0.0000
    32 O2          21.3930    43.1870   -43.9280 O.co2        1 CB3318  -1.0000
    33 CP1         15.2040    48.8920   -46.9850 C.3          1 CB3318   0.0000
    34 CP2         15.2130    47.8090   -45.9900 C.1          1 CB3318   0.0000
    35 CP3         15.2230    46.9290   -45.1720 C.1          1 CB3318   0.0000
    36 HA21        19.7060    44.4591   -53.4280 H            1 CB3318   0.0000
    37 HA22        20.3965    45.8663   -54.1648 H            1 CB3318   0.0000
    38 H3          16.6926    47.8206   -48.9564 H            1 CB3318   0.0000
    39 H4          18.0590    51.4098   -50.5323 H            1 CB3318   0.0000
    40 H5          19.3551    50.2067   -52.1708 H            1 CB3318   0.0000
    41 H6          15.8009    50.7822   -48.6340 H            1 CB3318   0.0000
    42 H7          17.3090    51.1519   -48.1283 H            1 CB3318   0.0000
    43 H8          18.7844    46.6146   -44.5464 H            1 CB3318   0.0000
    44 H9          16.8284    47.3148   -45.7423 H            1 CB3318   0.0000
    45 H10         18.9217    50.6101   -47.2339 H            1 CB3318   0.0000
    46 H11         20.8885    49.9125   -46.0467 H            1 CB3318   0.0000
    47 H12         20.7515    46.7453   -42.7274 H            1 CB3318   0.0000
    48 HA          21.2946    45.5461   -45.2534 H            1 CB3318   0.0000
    49 HB1         23.4758    46.1049   -44.9224 H            1 CB3318   0.0000
    50 HB2         23.3771    44.5223   -44.5320 H            1 CB3318   0.0000
    51 HG1         23.3977    45.0757   -42.2450 H            1 CB3318   0.0000
    52 HG2         23.4674    46.6628   -42.6230 H            1 CB3318   0.0000
    53 HP11        14.8315    48.5322   -47.8405 H            1 CB3318   0.0000
    54 HP12        14.6150    49.6263   -46.6477 H            1 CB3318   0.0000
    55 HP3         15.2313    46.1966   -44.4912 H            1 CB3318   0.0000
    56 H21         18.4764    44.5512   -51.6565 H            1 CB3318   0.0000
@<TRIPOS>BOND
     1    1    2       2
     2    1   12       1
     3    2    3       1
     4    2    4       1
     5    4    5       1
     6    5    6       2
     7    5    7       1
     8    7    8      ar
     9    7   12      ar
    10    8    9      ar
    11    9   10      ar
    12    9   13       1
    13   10   11      ar
    14   11   12      ar
    15   13   14       1
    16   14   18       1
    17   14   33       1
    18   15   16      ar
    19   15   20      ar
    20   15   21       1
    21   16   17      ar
    22   17   18      ar
    23   18   19      ar
    24   19   20      ar
    25   21   22       2
    26   21   23      am
    27   23   24       1
    28   24   25       1
    29   24   30       1
    30   25   26       1
    31   26   27       1
    32   27   28      ar
    33   27   29      ar
    34   30   31      ar
    35   30   32      ar
    36   33   34       1
    37   34   35       3
    38   35   55       1
    39    3   36       1
    40    3   37       1
    41    8   38       1
    42   10   39       1
    43   11   40       1
    44   13   41       1
    45   13   42       1
    46   16   43       1
    47   17   44       1
    48   19   45       1
    49   20   46       1
    50   23   47       1
    51   24   48       1
    52   25   49       1
    53   25   50       1
    54   26   51       1
    55   26   52       1
    56    4   56       1
    57   33   54       1
    58   33   53       1
@<TRIPOS>SUBSTRUCTURE
     1 CB3318      1 GROUP             4 A     CB3     0 **** CB3 A 318
