@<TRIPOS>MOLECULE
2j4k_U5P_5_ligand
   32    33     1     0     0
SMALL
NO_CHARGES


@<TRIPOS>ATOM
     1 N1          30.3770    -4.4530   -11.2690 N.pl3        1 U5P227   0.0000
     2 C2          30.6210    -2.9740   -10.9860 C.2          1 U5P227   0.0000
     3 N3          31.3130    -2.7220    -9.7700 N.pl3        1 U5P227   0.0000
     4 C4          31.7860    -3.6980    -8.8330 C.2          1 U5P227   0.0000
     5 C5          31.5550    -5.1790    -9.1200 C.2          1 U5P227   0.0000
     6 C6          30.8810    -5.4710   -10.2850 C.2          1 U5P227   0.0000
     7 O2          30.2810    -2.0410   -11.6740 O.2          1 U5P227   0.0000
     8 O4          32.5120    -3.3390    -7.5450 O.2          1 U5P227   0.0000
     9 C1'         29.6010    -4.8570   -12.5740 C.3          1 U5P227   0.0000
    10 C2'         30.4090    -4.5890   -13.9370 C.3          1 U5P227   0.0000
    11 O2'         29.4460    -4.0760   -14.9030 O.3          1 U5P227   0.0000
    12 C3'         31.2080    -5.9230   -13.9690 C.3          1 U5P227   0.0000
    13 C4'         30.0590    -6.9210   -13.6550 C.3          1 U5P227   0.0000
    14 O3'         31.7370    -6.2220   -15.2510 O.3          1 U5P227   0.0000
    15 O4'         29.4670    -6.3400   -12.5650 O.3          1 U5P227   0.0000
    16 C5'         30.3080    -8.2950   -13.1910 C.3          1 U5P227   0.0000
    17 O5'         31.5190    -8.2610   -12.4860 O.3          1 U5P227   0.0000
    18 P           32.6880    -9.2080   -12.7990 P.3          1 U5P227   0.0000
    19 O1P         33.8050    -8.8880   -11.8870 O.co2        1 U5P227   0.0000
    20 O2P         32.1620   -10.6100   -12.7300 O.co2        1 U5P227  -1.0000
    21 O3P         33.0330    -8.8310   -14.2970 O.co2        1 U5P227  -1.0000
    22 H1          31.4881    -1.7635    -9.5448 H            1 U5P227   0.0000
    23 H2          31.8741    -5.8949    -8.4990 H            1 U5P227   0.0000
    24 H3          30.7141    -6.4350   -10.4922 H            1 U5P227   0.0000
    25 H1'         28.7022    -4.4196   -12.6023 H            1 U5P227   0.0000
    26 H2'         31.0639    -3.8558   -13.7538 H            1 U5P227   0.0000
    27 H6          29.4109    -3.0785   -14.8411 H            1 U5P227   0.0000
    28 H3'         31.9170    -5.9444   -13.2641 H            1 U5P227   0.0000
    29 H4'         29.4125    -6.9375   -14.4177 H            1 U5P227   0.0000
    30 H9          32.2382    -7.0864   -15.2115 H            1 U5P227   0.0000
    31 H5'1        30.3795    -8.9161   -13.9715 H            1 U5P227   0.0000
    32 H5'2        29.5670    -8.5972   -12.5913 H            1 U5P227   0.0000
@<TRIPOS>BOND
     1    1    2       1
     2    1    6       1
     3    1    9       1
     4    2    3       1
     5    2    7       2
     6    3    4       1
     7    4    5       1
     8    4    8       2
     9    5    6       2
    10    9   10       1
    11    9   15       1
    12   10   11       1
    13   10   12       1
    14   12   13       1
    15   12   14       1
    16   13   15       1
    17   13   16       1
    18   16   17       1
    19   17   18       1
    20   18   19      ar
    21   18   20      ar
    22   18   21      ar
    23    3   22       1
    24    5   23       1
    25    6   24       1
    26    9   25       1
    27   10   26       1
    28   11   27       1
    29   12   28       1
    30   13   29       1
    31   14   30       1
    32   16   31       1
    33   16   32       1
@<TRIPOS>SUBSTRUCTURE
     1 U5P227      1 GROUP             4 E     U5P     0 **** U5P E 227
