@<TRIPOS>MOLECULE
3c1o_NAP_1_ligand
   73    77     1     0     0
SMALL
NO_CHARGES


@<TRIPOS>ATOM
     1 PA          56.5290    -2.9500    16.0610 P.3          1 NAP401   0.0000
     2 O1A         57.6590    -1.9870    16.0560 O.co2        1 NAP401   0.0000
     3 O2A         56.2120    -3.7440    17.2690 O.co2        1 NAP401  -1.0000
     4 O5B         56.7510    -3.8670    14.7830 O.3          1 NAP401   0.0000
     5 C5B         58.0080    -4.4830    14.5250 C.3          1 NAP401   0.0000
     6 C4B         57.6710    -5.6790    13.6790 C.3          1 NAP401   0.0000
     7 O4B         58.0440    -5.7140    12.1920 O.3          1 NAP401   0.0000
     8 C3B         58.3240    -6.9810    14.0580 C.3          1 NAP401   0.0000
     9 O3B         57.3930    -8.0030    13.7220 O.3          1 NAP401   0.0000
    10 C2B         59.5930    -7.1400    13.2310 C.3          1 NAP401   0.0000
    11 O2B         60.0430    -8.4480    13.0260 O.3          1 NAP401   0.0000
    12 C1B         59.2830    -6.3770    11.9700 C.3          1 NAP401   0.0000
    13 N9A         60.3290    -5.4700    11.5070 N.pl3        1 NAP401   0.0000
    14 C8A         60.8780    -4.3760    12.1560 C.2          1 NAP401   0.0000
    15 N7A         61.8130    -3.7780    11.4380 N.2          1 NAP401   0.0000
    16 C5A         61.8660    -4.5090    10.2870 C.ar         1 NAP401   0.0000
    17 C6A         62.6580    -4.3930     9.1100 C.ar         1 NAP401   0.0000
    18 N6A         63.5730    -3.4200     8.9730 N.pl3        1 NAP401   0.0000
    19 N1A         62.4550    -5.3160     8.1120 N.ar         1 NAP401   0.0000
    20 C2A         61.5270    -6.3010     8.2510 C.ar         1 NAP401   0.0000
    21 N3A         60.7240    -6.5010     9.3300 N.ar         1 NAP401   0.0000
    22 C4A         60.9510    -5.5530    10.3110 C.ar         1 NAP401   0.0000
    23 O3          55.2390    -2.1630    15.4740 O.3          1 NAP401   0.0000
    24 PN          53.9890    -1.6740    16.3190 P.3          1 NAP401   0.0000
    25 O1N         54.4220    -0.8480    17.4710 O.co2        1 NAP401   0.0000
    26 O2N         53.1910    -2.9020    16.6190 O.co2        1 NAP401  -1.0000
    27 O5D         53.1550    -0.7880    15.2870 O.3          1 NAP401   0.0000
    28 C5D         52.4470    -1.3670    14.1690 C.3          1 NAP401   0.0000
    29 C4D         51.3670    -0.4110    13.7000 C.3          1 NAP401   0.0000
    30 O4D         50.5750    -0.0270    14.8620 O.3          1 NAP401   0.0000
    31 C3D         51.9190     0.8710    13.0230 C.3          1 NAP401   0.0000
    32 O3D         51.1530     1.2410    11.9050 O.3          1 NAP401   0.0000
    33 C2D         51.8580     1.8400    14.1680 C.3          1 NAP401   0.0000
    34 O2D         51.7970     3.1650    13.6750 O.3          1 NAP401   0.0000
    35 C1D         50.6470     1.4160    14.9470 C.3          1 NAP401   0.0000
    36 N1N         50.6860     1.9140    16.3520 N.ar         1 NAP401   1.0000
    37 C2N         49.5340     2.4970    16.8320 C.ar         1 NAP401   0.0000
    38 C3N         49.4300     2.8450    18.1840 C.ar         1 NAP401   0.0000
    39 C7N         48.1590     3.4070    18.7560 C.2          1 NAP401   0.0000
    40 O7N         48.1200     3.7360    19.9430 O.2          1 NAP401   0.0000
    41 N7N         47.1000     3.5060    17.9390 N.am         1 NAP401   0.0000
    42 C4N         50.5580     2.6460    19.0430 C.ar         1 NAP401   0.0000
    43 C5N         51.7240     2.0500    18.5350 C.ar         1 NAP401   0.0000
    44 C6N         51.7780     1.6550    17.2000 C.ar         1 NAP401   0.0000
    45 P2B         61.1790    -9.1070    13.9690 P.3          1 NAP401   0.0000
    46 O1X         60.4900   -10.0230    14.9630 O.co2        1 NAP401   0.0000
    47 O2X         62.0510    -9.7750    12.9410 O.co2        1 NAP401  -1.0000
    48 O3X         61.8850    -7.9620    14.6760 O.co2        1 NAP401  -1.0000
    49 H5B1        58.4457    -4.7653    15.3787 H            1 NAP401   0.0000
    50 H5B2        58.6131    -3.8590    14.0306 H            1 NAP401   0.0000
    51 H4B         56.6822    -5.8152    13.7394 H            1 NAP401   0.0000
    52 H3B         58.5337    -7.0005    15.0356 H            1 NAP401   0.0000
    53 H5          57.7793    -8.8955    13.9549 H            1 NAP401   0.0000
    54 H2B         60.3213    -6.6460    13.7060 H            1 NAP401   0.0000
    55 H1B         59.1330    -7.0502    11.2459 H            1 NAP401   0.0000
    56 H8A         60.5980    -4.0724    13.0667 H            1 NAP401   0.0000
    57 H6A1        64.1172    -3.3596     8.1362 H            1 NAP401   0.0000
    58 H6A2        63.7103    -2.7557     9.7078 H            1 NAP401   0.0000
    59 H2A         61.4258    -6.9385     7.4872 H            1 NAP401   0.0000
    60 H5D1        52.0278    -2.2299    14.4514 H            1 NAP401   0.0000
    61 H5D2        53.0885    -1.5371    13.4210 H            1 NAP401   0.0000
    62 H4D         50.7749    -0.8882    13.0506 H            1 NAP401   0.0000
    63 H3D         52.8703     0.7278    12.7501 H            1 NAP401   0.0000
    64 H16         51.1651     0.5007    11.2328 H            1 NAP401   0.0000
    65 H2D         52.6734     1.7341    14.7371 H            1 NAP401   0.0000
    66 H18         50.9542     3.6001    13.9918 H            1 NAP401   0.0000
    67 H1D         49.8374     1.7976    14.5010 H            1 NAP401   0.0000
    68 H2N         48.7690     2.6723    16.2123 H            1 NAP401   0.0000
    69 H7N1        46.2363     3.8750    18.2824 H            1 NAP401   0.0000
    70 H7N2        47.1741     3.2108    16.9864 H            1 NAP401   0.0000
    71 H4N         50.5159     2.9302    20.0008 H            1 NAP401   0.0000
    72 H5N         52.5146     1.9093    19.1309 H            1 NAP401   0.0000
    73 H6N         52.5893     1.1895    16.8463 H            1 NAP401   0.0000
@<TRIPOS>BOND
     1    1    2      ar
     2    1    3      ar
     3    1    4       1
     4    1   23       1
     5    4    5       1
     6    5    6       1
     7    6    7       1
     8    6    8       1
     9    7   12       1
    10    8    9       1
    11    8   10       1
    12   10   11       1
    13   10   12       1
    14   11   45       1
    15   12   13       1
    16   13   14       1
    17   13   22       1
    18   14   15       2
    19   15   16       1
    20   16   17      ar
    21   16   22      ar
    22   17   18       1
    23   17   19      ar
    24   19   20      ar
    25   20   21      ar
    26   21   22      ar
    27   23   24       1
    28   24   25      ar
    29   24   26      ar
    30   24   27       1
    31   27   28       1
    32   28   29       1
    33   29   30       1
    34   29   31       1
    35   30   35       1
    36   31   32       1
    37   31   33       1
    38   33   34       1
    39   33   35       1
    40   35   36       1
    41   36   37      ar
    42   36   44      ar
    43   37   38      ar
    44   38   39       1
    45   38   42      ar
    46   39   40       2
    47   39   41      am
    48   42   43      ar
    49   43   44      ar
    50   45   46      ar
    51   45   47      ar
    52   45   48      ar
    53   43   72       1
    54    5   49       1
    55    5   50       1
    56    6   51       1
    57    8   52       1
    58    9   53       1
    59   10   54       1
    60   12   55       1
    61   14   56       1
    62   18   57       1
    63   18   58       1
    64   20   59       1
    65   44   73       1
    66   28   60       1
    67   28   61       1
    68   29   62       1
    69   31   63       1
    70   32   64       1
    71   33   65       1
    72   34   66       1
    73   35   67       1
    74   37   68       1
    75   41   69       1
    76   41   70       1
    77   42   71       1
@<TRIPOS>SUBSTRUCTURE
     1 NAP401      1 GROUP             4 A     NAP     0 **** NAP A 401
