@<TRIPOS>MOLECULE
4xcz_T3Q_2_ligand
   61    63     1     0     0
SMALL
NO_CHARGES


@<TRIPOS>ATOM
     1 O4          -1.3500    77.8780    20.0100 O.2          1 T3Q402   0.0000
     2 C4          -0.5730    76.8790    20.1540 C.2          1 T3Q402   0.0000
     3 N3           0.7330    77.1530    20.2920 N.pl3        1 T3Q402   0.0000
     4 C2           1.6230    76.1440    20.5070 C.2          1 T3Q402   0.0000
     5 O2           2.8630    76.3960    20.6160 O.2          1 T3Q402   0.0000
     6 C5          -1.0020    75.5560    20.2670 C.2          1 T3Q402   0.0000
     7 C5M         -2.4630    75.2190    20.0870 C.3          1 T3Q402   0.0000
     8 C6          -0.1230    74.5850    20.4630 C.2          1 T3Q402   0.0000
     9 N1           1.1460    74.8820    20.5950 N.pl3        1 T3Q402   0.0000
    10 C1'          2.1160    73.7380    20.8070 C.3          1 T3Q402   0.0000
    11 O4'          2.0450    72.8930    19.6570 O.3          1 T3Q402   0.0000
    12 C2'          1.9390    72.8580    22.0170 C.3          1 T3Q402   0.0000
    13 C3'          1.3670    71.5320    21.4930 C.3          1 T3Q402   0.0000
    14 O3'          1.7740    70.4110    22.3180 O.3          1 T3Q402   0.0000
    15 C4'          1.8580    71.4970    20.0300 C.3          1 T3Q402   0.0000
    16 C5'          0.9110    70.7860    19.0770 C.3          1 T3Q402   0.0000
    17 O5'         -0.3290    71.4380    19.1560 O.3          1 T3Q402   0.0000
    18 PA          -1.6940    70.7050    18.6590 P.3          1 T3Q402   0.0000
    19 O1A         -1.5870    69.3590    18.0130 O.co2        1 T3Q402   0.0000
    20 O2A         -2.8940    71.5880    18.7210 O.co2        1 T3Q402  -1.0000
    21 O3A         -2.1740    70.2420    20.1770 O.3          1 T3Q402   0.0000
    22 PB          -1.6980    69.3190    21.5090 P.3          1 T3Q402   0.0000
    23 O1B         -2.3500    69.8140    22.7950 O.co2        1 T3Q402   0.0000
    24 O2B         -0.2750    68.7800    21.5780 O.co2        1 T3Q402  -1.0000
    25 O3B         -2.5640    67.9340    21.3190 O.3          1 T3Q402   0.0000
    26 O4Q         -5.1360    64.3170    19.8930 O.3          1 T3Q402   0.0000
    27 C4Q         -5.0640    65.3880    20.8250 C.3          1 T3Q402   0.0000
    28 C5Q         -4.9920    66.7750    20.1730 C.3          1 T3Q402   0.0000
    29 O5Q         -4.9100    67.7550    21.2630 O.3          1 T3Q402   0.0000
    30 C6Q         -6.1270    66.9880    19.1530 C.3          1 T3Q402   0.0000
    31 C3Q         -3.7570    65.1960    21.5760 C.3          1 T3Q402   0.0000
    32 N3Q         -3.5700    63.8580    22.1100 N.4          1 T3Q402   1.0000
    33 C2Q         -3.6030    66.2480    22.6830 C.3          1 T3Q402   0.0000
    34 O2Q         -2.3080    66.0290    23.3080 O.3          1 T3Q402   0.0000
    35 C1Q         -3.7500    67.6470    22.0750 C.3          1 T3Q402   0.0000
    36 H1           1.0536    78.0986    20.2370 H            1 T3Q402   0.0000
    37 H5M1        -2.5943    74.2341    20.2002 H            1 T3Q402   0.0000
    38 H5M2        -3.0046    75.7082    20.7706 H            1 T3Q402   0.0000
    39 H5M3        -2.7575    75.4915    19.1710 H            1 T3Q402   0.0000
    40 H5          -0.4255    73.6330    20.5098 H            1 T3Q402   0.0000
    41 H1'          3.0378    74.1240    20.8441 H            1 T3Q402   0.0000
    42 H2'1         1.3034    73.2796    22.6638 H            1 T3Q402   0.0000
    43 H2'2         2.8188    72.7038    22.4667 H            1 T3Q402   0.0000
    44 H3'          0.3686    71.5884    21.4963 H            1 T3Q402   0.0000
    45 H10          1.0669    69.7044    22.2926 H            1 T3Q402   0.0000
    46 H4'          2.7454    71.0368    20.0015 H            1 T3Q402   0.0000
    47 H5'1         0.8114    69.8278    19.3453 H            1 T3Q402   0.0000
    48 H5'2         1.2647    70.8356    18.1429 H            1 T3Q402   0.0000
    49 H4Q         -6.0941    64.1198    19.6852 H            1 T3Q402   0.0000
    50 H15         -5.8357    65.3451    21.4596 H            1 T3Q402   0.0000
    51 H5Q         -4.1294    66.8204    19.6692 H            1 T3Q402   0.0000
    52 H6Q1        -6.0468    67.9000    18.7507 H            1 T3Q402   0.0000
    53 H6Q2        -6.0607    66.2985    18.4318 H            1 T3Q402   0.0000
    54 H6Q3        -7.0101    66.9038    19.6146 H            1 T3Q402   0.0000
    55 H3Q         -3.0187    65.3534    20.9202 H            1 T3Q402   0.0000
    56 H3Q1        -2.7443    63.4542    21.7160 H            1 T3Q402   0.0000
    57 H3Q2        -3.4757    63.9061    23.1044 H            1 T3Q402   0.0000
    58 H2Q         -4.3216    66.1115    23.3649 H            1 T3Q402   0.0000
    59 H24         -2.3497    66.3072    24.2676 H            1 T3Q402   0.0000
    60 H1Q         -3.8205    68.3110    22.8194 H            1 T3Q402   0.0000
    61 H3Q3        -4.3613    63.2926    21.8772 H            1 T3Q402   0.0000
@<TRIPOS>BOND
     1    1    2       2
     2    2    3       1
     3    2    6       1
     4    3    4       1
     5    4    5       2
     6    4    9       1
     7    6    7       1
     8    6    8       2
     9    8    9       1
    10    9   10       1
    11   10   11       1
    12   10   12       1
    13   11   15       1
    14   12   13       1
    15   13   14       1
    16   13   15       1
    17   15   16       1
    18   16   17       1
    19   17   18       1
    20   18   19      ar
    21   18   20      ar
    22   18   21       1
    23   21   22       1
    24   22   23      ar
    25   22   24      ar
    26   22   25       1
    27   25   35       1
    28   26   27       1
    29   27   28       1
    30   27   31       1
    31   28   29       1
    32   28   30       1
    33   29   35       1
    34   31   32       1
    35   31   33       1
    36   33   34       1
    37   33   35       1
    38    3   36       1
    39    7   37       1
    40    7   38       1
    41    7   39       1
    42    8   40       1
    43   10   41       1
    44   12   42       1
    45   12   43       1
    46   13   44       1
    47   14   45       1
    48   15   46       1
    49   16   47       1
    50   16   48       1
    51   35   60       1
    52   34   59       1
    53   26   49       1
    54   27   50       1
    55   28   51       1
    56   30   52       1
    57   30   53       1
    58   30   54       1
    59   31   55       1
    60   32   56       1
    61   32   57       1
    62   33   58       1
    63   32   61       1
@<TRIPOS>SUBSTRUCTURE
     1 T3Q402      1 GROUP             4 A     T3Q     0 **** T3Q A 402
