@<TRIPOS>MOLECULE
4lbp_1WG_1_ligand
   14    14     1     0     0
SMALL
NO_CHARGES


@<TRIPOS>ATOM
     1 O01        -11.0150    36.4330   -17.0870 O.3          1 1WG201   0.0000
     2 C02        -10.7850    36.3820   -15.8890 C.2          1 1WG201   0.0000
     3 C03         -9.7190    37.2680   -15.2800 C.2          1 1WG201   0.0000
     4 O04         -8.9900    38.1460   -16.0960 O.2          1 1WG201   0.0000
     5 C05         -9.4570    37.2290   -13.9550 C.2          1 1WG201   0.0000
     6 C06        -10.2270    36.2750   -13.0810 C.2          1 1WG201   0.0000
     7 O07        -10.0160    36.2190   -11.8880 O.3          1 1WG201   0.0000
     8 C08        -11.2910    35.3910   -13.6850 C.2          1 1WG201   0.0000
     9 O09        -11.9720    34.5220   -12.8370 O.2          1 1WG201   0.0000
    10 C10        -11.5630    35.4360   -15.0040 C.2          1 1WG201   0.0000
    11 H1          -8.7598    37.8268   -13.5595 H            1 1WG201   0.0000
    12 H2         -12.2728    34.8491   -15.3934 H            1 1WG201   0.0000
    13 H3         -11.7197    35.8465   -17.4862 H            1 1WG201   0.0000
    14 H4         -10.5340    35.5812   -11.3180 H            1 1WG201   0.0000
@<TRIPOS>BOND
     1    1    2       1
     2    2    3       1
     3    2   10       2
     4    3    4       2
     5    3    5       1
     6    5    6       2
     7    6    7       1
     8    6    8       1
     9    8    9       2
    10    8   10       1
    11    1   13       1
    12    5   11       1
    13    7   14       1
    14   10   12       1
@<TRIPOS>SUBSTRUCTURE
     1 1WG201      1 GROUP             4 A     1WG     0 **** 1WG A 201
