@<TRIPOS>MOLECULE
3f0g_C5P_4_ligand
   33    34     1     0     0
SMALL
NO_CHARGES


@<TRIPOS>ATOM
     1 O3P        -12.6180    30.6670    -4.0610 O.co2        1 C5P163   0.0000
     2 P          -12.2770    31.2980    -2.6160 P.3          1 C5P163   0.0000
     3 O1P        -13.3940    30.9340    -1.6660 O.co2        1 C5P163  -1.0000
     4 O2P        -11.8890    32.7470    -2.8060 O.co2        1 C5P163  -1.0000
     5 O5'        -10.9640    30.5020    -2.1540 O.3          1 C5P163   0.0000
     6 C5'         -9.7830    30.5100    -2.9550 C.3          1 C5P163   0.0000
     7 C4'         -8.7350    29.6150    -2.3090 C.3          1 C5P163   0.0000
     8 O4'         -8.0400    30.3320    -1.2790 O.3          1 C5P163   0.0000
     9 C3'         -9.3470    28.4140    -1.6040 C.3          1 C5P163   0.0000
    10 O3'         -9.5850    27.2930    -2.4650 O.3          1 C5P163   0.0000
    11 C2'         -8.3560    28.1180    -0.4970 C.3          1 C5P163   0.0000
    12 O2'         -7.2880    27.2990    -0.9870 O.3          1 C5P163   0.0000
    13 C1'         -7.8030    29.4920    -0.1390 C.3          1 C5P163   0.0000
    14 N1          -8.4170    30.0660     1.0790 N.pl3        1 C5P163   0.0000
    15 C2          -7.6730    30.1470     2.2900 C.2          1 C5P163   0.0000
    16 N3          -8.2330    30.6840     3.4020 N.2          1 C5P163   0.0000
    17 C4          -9.5000    31.1570     3.3840 C.2          1 C5P163   0.0000
    18 C5         -10.2430    31.0900     2.2090 C.2          1 C5P163   0.0000
    19 C6          -9.6760    30.5440     1.0600 C.2          1 C5P163   0.0000
    20 O2          -6.4960    29.7240     2.3540 O.2          1 C5P163   0.0000
    21 N4         -10.0480    31.6940     4.5050 N.pl3        1 C5P163   0.0000
    22 H5'1        -9.4305    31.4434    -3.0220 H            1 C5P163   0.0000
    23 H5'2        -9.9970    30.1680    -3.8700 H            1 C5P163   0.0000
    24 H4'         -8.0840    29.3040    -3.0014 H            1 C5P163   0.0000
    25 H3'        -10.2147    28.6918    -1.1919 H            1 C5P163   0.0000
    26 H5          -9.9859    26.5453    -1.9356 H            1 C5P163   0.0000
    27 H2'         -8.8067    27.6934     0.2882 H            1 C5P163   0.0000
    28 H7          -7.6598    26.4363    -1.3298 H            1 C5P163   0.0000
    29 H1'         -6.8163    29.4145     0.0040 H            1 C5P163   0.0000
    30 H9         -11.1821    31.4332     2.1898 H            1 C5P163   0.0000
    31 H10        -10.2080    30.5066     0.2141 H            1 C5P163   0.0000
    32 H11        -10.9852    32.0422     4.4859 H            1 C5P163   0.0000
    33 H12         -9.5142    31.7411     5.3493 H            1 C5P163   0.0000
@<TRIPOS>BOND
     1    1    2      ar
     2    2    3      ar
     3    2    4      ar
     4    2    5       1
     5    5    6       1
     6    6    7       1
     7    7    8       1
     8    7    9       1
     9    8   13       1
    10    9   10       1
    11    9   11       1
    12   11   12       1
    13   11   13       1
    14   13   14       1
    15   14   15       1
    16   14   19       1
    17   15   16       1
    18   15   20       2
    19   16   17       2
    20   17   18       1
    21   17   21       1
    22   18   19       2
    23   21   33       1
    24   21   32       1
    25    6   22       1
    26    6   23       1
    27    7   24       1
    28    9   25       1
    29   10   26       1
    30   11   27       1
    31   12   28       1
    32   13   29       1
    33   18   30       1
    34   19   31       1
@<TRIPOS>SUBSTRUCTURE
     1 C5P163      1 GROUP             4 E     C5P     0 **** C5P E 163
