@<TRIPOS>MOLECULE
2xq0_BES_1_ligand
   46    46     1     0     0
SMALL
NO_CHARGES


@<TRIPOS>ATOM
     1 N2         -21.5920    -3.4090    14.9550 N.4          1 BES901   1.0000
     2 C1         -22.6260    -2.4150    14.7540 C.3          1 BES901   0.0000
     3 C6         -23.9570    -3.0970    14.4320 C.3          1 BES901   0.0000
     4 C7         -24.4110    -3.9330    15.6080 C.ar         1 BES901   0.0000
     5 C8         -24.3770    -3.3960    16.8900 C.ar         1 BES901   0.0000
     6 C12        -24.8440    -5.2410    15.4130 C.ar         1 BES901   0.0000
     7 C9         -24.7870    -4.1620    17.9750 C.ar         1 BES901   0.0000
     8 C11        -25.2530    -6.0080    16.5010 C.ar         1 BES901   0.0000
     9 C10        -25.2260    -5.4680    17.7830 C.ar         1 BES901   0.0000
    10 C2         -22.2480    -1.4430    13.6290 C.3          1 BES901   0.0000
    11 O2         -21.0000    -0.7610    13.8190 O.3          1 BES901   0.0000
    12 C3         -23.3500    -0.4420    13.5270 C.2          1 BES901   0.0000
    13 O3         -23.5120     0.4300    14.3840 O.2          1 BES901   0.0000
    14 N1         -24.0800    -0.6660    12.4420 N.am         1 BES901   0.0000
    15 C4         -25.2390     0.0650    11.9730 C.3          1 BES901   0.0000
    16 C13        -24.6570     1.0200    10.9380 C.3          1 BES901   0.0000
    17 C14        -25.0460     2.4710    11.1870 C.3          1 BES901   0.0000
    18 C15        -24.0560     3.4040    10.4990 C.3          1 BES901   0.0000
    19 C16        -25.1540     2.7870    12.6770 C.3          1 BES901   0.0000
    20 C5         -26.1190    -0.9330    11.2760 C.2          1 BES901   0.0000
    21 O1         -27.3490    -0.7150    11.2080 O.co2        1 BES901   0.0000
    22 O4         -25.5810    -1.9600    10.7900 O.co2        1 BES901  -1.0000
    23 H1         -20.7076    -3.0297    14.6831 H            1 BES901   0.0000
    24 H2         -21.5612    -3.6674    15.9205 H            1 BES901   0.0000
    25 H3         -22.7335    -1.8937    15.6006 H            1 BES901   0.0000
    26 H4         -23.8417    -3.6862    13.6323 H            1 BES901   0.0000
    27 H5         -24.6468    -2.4000    14.2358 H            1 BES901   0.0000
    28 H6         -24.0577    -2.4590    17.0315 H            1 BES901   0.0000
    29 H7         -24.8615    -5.6300    14.4919 H            1 BES901   0.0000
    30 H8         -24.7663    -3.7732    18.8961 H            1 BES901   0.0000
    31 H9         -25.5662    -6.9473    16.3608 H            1 BES901   0.0000
    32 H10        -25.5215    -6.0174    18.5646 H            1 BES901   0.0000
    33 H11        -22.2029    -1.9537    12.7704 H            1 BES901   0.0000
    34 H12        -20.3823    -0.9797    13.0636 H            1 BES901   0.0000
    35 H13        -23.7932    -1.4385    11.8755 H            1 BES901   0.0000
    36 H14        -25.7138     0.5440    12.7113 H            1 BES901   0.0000
    37 H15        -24.9886     0.7513    10.0336 H            1 BES901   0.0000
    38 H16        -23.6599     0.9481    10.9624 H            1 BES901   0.0000
    39 H17        -25.9451     2.6218    10.7761 H            1 BES901   0.0000
    40 H18        -24.3199     4.3536    10.6683 H            1 BES901   0.0000
    41 H19        -23.1384     3.2431    10.8626 H            1 BES901   0.0000
    42 H20        -24.0602     3.2273     9.5147 H            1 BES901   0.0000
    43 H21        -25.4104     3.7461    12.7966 H            1 BES901   0.0000
    44 H22        -25.8503     2.2015    13.0923 H            1 BES901   0.0000
    45 H23        -24.2721     2.6203    13.1179 H            1 BES901   0.0000
    46 H24        -21.7932    -4.2162    14.4001 H            1 BES901   0.0000
@<TRIPOS>BOND
     1    1    2       1
     2    2    3       1
     3    2   10       1
     4    3    4       1
     5    4    5      ar
     6    4    6      ar
     7    5    7      ar
     8    6    8      ar
     9    7    9      ar
    10    8    9      ar
    11   10   11       1
    12   10   12       1
    13   12   13       2
    14   12   14      am
    15   14   15       1
    16   15   16       1
    17   15   20       1
    18   16   17       1
    19   17   18       1
    20   17   19       1
    21   20   21      ar
    22   20   22      ar
    23    1   23       1
    24    1   24       1
    25    2   25       1
    26    3   26       1
    27    3   27       1
    28    5   28       1
    29    6   29       1
    30    7   30       1
    31    8   31       1
    32    9   32       1
    33   10   33       1
    34   11   34       1
    35   14   35       1
    36   15   36       1
    37   16   37       1
    38   16   38       1
    39   17   39       1
    40   18   40       1
    41   18   41       1
    42   18   42       1
    43   19   43       1
    44   19   44       1
    45   19   45       1
    46    1   46       1
@<TRIPOS>SUBSTRUCTURE
     1 BES901      1 GROUP             4 A     BES     0 **** BES A 901
