@<TRIPOS>MOLECULE
4i31_1BV_1_ligand
  113   119     1     0     0
SMALL
NO_CHARGES


@<TRIPOS>ATOM
     1 C1          67.8350     6.3630     8.3410 C.3          1 1BV202   0.0000
     2 C2          66.6270     6.4930     9.2100 C.3          1 1BV202   0.0000
     3 C3          66.4860     6.5270     7.7260 C.3          1 1BV202   0.0000
     4 S4          66.0010     8.1790     7.1320 S.o2         1 1BV202   0.0000
     5 O5          66.4360     8.3350     5.7550 O.2          1 1BV202   0.0000
     6 O6          66.6060     9.2830     7.9240 O.2          1 1BV202   0.0000
     7 N7          64.3600     8.2530     7.0970 N.am         1 1BV202   0.0000
     8 C8          63.7780     9.4400     6.4840 C.2          1 1BV202   0.0000
     9 O9          64.4800    10.3470     6.0560 O.2          1 1BV202   0.0000
    10 C10         62.2870     9.5400     6.4140 C.3          1 1BV202   0.0000
    11 C11         61.9060    10.9580     6.7010 C.3          1 1BV202   0.0000
    12 C12         61.6140    10.3700     5.3560 C.3          1 1BV202   0.0000
    13 C13         62.4980    10.8590     4.2980 C.3          1 1BV202   0.0000
    14 C14         62.2920    10.3960     2.9950 C.3          1 1BV202   0.0000
    15 N15         61.3790     8.5860     7.0500 N.am         1 1BV202   0.0000
    16 C16         61.2260     7.2450     6.4830 C.2          1 1BV202   0.0000
    17 O17         61.9150     6.9710     5.5130 O.2          1 1BV202   0.0000
    18 C18         60.2320     6.3230     7.0600 C.3          1 1BV202   0.0000
    19 C19         60.6520     4.9730     7.5900 C.3          1 1BV202   0.0000
    20 C20         59.4280     4.1670     7.3540 C.3          1 1BV202   0.0000
    21 C21         59.1060     4.4920     5.9860 C.3          1 1BV202   0.0000
    22 N22         59.2770     5.9620     5.9980 N.am         1 1BV202   0.0000
    23 C23         58.6330     6.9440     5.1250 C.2          1 1BV202   0.0000
    24 O24         58.9260     8.1340     5.3020 O.2          1 1BV202   0.0000
    25 C25         57.6540     6.5480     4.0470 C.3          1 1BV202   0.0000
    26 C26         58.1330     7.0220     2.6740 C.3          1 1BV202   0.0000
    27 C27         59.5410     6.6610     2.3000 C.3          1 1BV202   0.0000
    28 C28         60.2200     7.4430     1.1550 C.3          1 1BV202   0.0000
    29 C29         60.8310     8.8080     1.5030 C.3          1 1BV202   0.0000
    30 C30         61.7130     8.9780     2.7110 C.3          1 1BV202   0.0000
    31 N31         56.4330     7.1460     4.5160 N.am         1 1BV202   0.0000
    32 C32         55.5000     6.3520     5.2400 C.2          1 1BV202   0.0000
    33 O33         55.7450     5.1880     5.4230 O.2          1 1BV202   0.0000
    34 C34         54.2260     6.9420     5.7870 C.2          1 1BV202   0.0000
    35 N35         53.2600     6.2620     6.4840 N.2          1 1BV202   0.0000
    36 N36         52.2730     7.1570     6.8250 N.pl3        1 1BV202   0.0000
    37 C37         52.6090     8.3920     6.3650 C.2          1 1BV202   0.0000
    38 C38         53.8280     8.2770     5.7130 C.2          1 1BV202   0.0000
    39 C39         51.0660     6.8270     7.5660 C.3          1 1BV202   0.0000
    40 C40         65.7910     5.4390     7.0000 C.3          1 1BV202   0.0000
    41 O41         58.3080     4.6940     8.0070 O.3          1 1BV202   0.0000
    42 C42         58.0590     4.2760     9.3470 C.ar         1 1BV202   0.0000
    43 C43         58.8980     3.3430    10.0270 C.ar         1 1BV202   0.0000
    44 C44         58.5840     2.9860    11.3490 C.ar         1 1BV202   0.0000
    45 N45         57.5180     3.5120    11.9660 N.ar         1 1BV202   0.0000
    46 C46         56.6620     4.4320    11.3370 C.ar         1 1BV202   0.0000
    47 C47         56.9020     4.8190    10.0520 C.ar         1 1BV202   0.0000
    48 C48         56.0290     5.7510     9.4330 C.ar         1 1BV202   0.0000
    49 C49         54.9280     6.2470    10.1380 C.ar         1 1BV202   0.0000
    50 C50         54.6890     5.8420    11.4450 C.ar         1 1BV202   0.0000
    51 C51         55.5400     4.9400    12.0570 C.ar         1 1BV202   0.0000
    52 O52         59.3850     2.0620    12.0710 O.3          1 1BV202   0.0000
    53 C53         58.9200     1.5780    13.3030 C.3          1 1BV202   0.0000
    54 C54         60.0730     1.0860    14.2370 C.3          1 1BV202   0.0000
    55 C55         57.7970     0.5740    13.1580 C.3          1 1BV202   0.0000
    56 O56         53.5950     6.3410    12.1770 O.3          1 1BV202   0.0000
    57 C57         52.4360     6.7560    11.5000 C.3          1 1BV202   0.0000
    58 C58         55.2820     4.5140    13.4380 C.3          1 1BV202   0.0000
    59 H1          68.3116     5.4864     8.2749 H            1 1BV202   0.0000
    60 H2          68.5000     7.1084     8.2942 H            1 1BV202   0.0000
    61 H3          66.4832     7.3254     9.7452 H            1 1BV202   0.0000
    62 H4          66.2948     5.7034     9.7259 H            1 1BV202   0.0000
    63 H5          63.7913     7.5229     7.4759 H            1 1BV202   0.0000
    64 H6          62.6157    11.6559     6.7973 H            1 1BV202   0.0000
    65 H7          61.1565    11.1554     7.3329 H            1 1BV202   0.0000
    66 H8          60.6634    10.1640     5.1236 H            1 1BV202   0.0000
    67 H9          63.4323    10.6125     4.5555 H            1 1BV202   0.0000
    68 H10         62.4101    11.8549     4.2756 H            1 1BV202   0.0000
    69 H11         63.1816    10.4326     2.5398 H            1 1BV202   0.0000
    70 H12         61.6685    11.0463     2.5610 H            1 1BV202   0.0000
    71 H13         60.8658     8.8481     7.8672 H            1 1BV202   0.0000
    72 H14         59.7350     6.8052     7.7815 H            1 1BV202   0.0000
    73 H15         60.8781     5.0171     8.5631 H            1 1BV202   0.0000
    74 H16         61.4327     4.6083     7.0825 H            1 1BV202   0.0000
    75 H17         59.5581     3.1881     7.5117 H            1 1BV202   0.0000
    76 H18         58.1673     4.2332     5.7581 H            1 1BV202   0.0000
    77 H19         59.7373     4.0539     5.3460 H            1 1BV202   0.0000
    78 H20         57.5543     5.5530     4.0384 H            1 1BV202   0.0000
    79 H21         58.0581     8.0190     2.6526 H            1 1BV202   0.0000
    80 H22         57.5242     6.6272     1.9859 H            1 1BV202   0.0000
    81 H23         59.5392     5.6958     2.0384 H            1 1BV202   0.0000
    82 H24         60.1046     6.7839     3.1168 H            1 1BV202   0.0000
    83 H25         59.5325     7.5935     0.4446 H            1 1BV202   0.0000
    84 H26         60.9539     6.8686     0.7924 H            1 1BV202   0.0000
    85 H27         60.0654     9.4409     1.6188 H            1 1BV202   0.0000
    86 H28         61.3761     9.0854     0.7118 H            1 1BV202   0.0000
    87 H29         61.1773     8.7089     3.5114 H            1 1BV202   0.0000
    88 H30         62.4882     8.3554     2.6041 H            1 1BV202   0.0000
    89 H31         56.2415     8.1107     4.3350 H            1 1BV202   0.0000
    90 H32         52.0748     9.2300     6.4764 H            1 1BV202   0.0000
    91 H33         54.3314     9.0184     5.2693 H            1 1BV202   0.0000
    92 H34         50.5118     7.6509     7.6844 H            1 1BV202   0.0000
    93 H35         50.5413     6.1421     7.0604 H            1 1BV202   0.0000
    94 H36         51.3150     6.4610     8.4627 H            1 1BV202   0.0000
    95 H37         64.9052     5.7688     6.6737 H            1 1BV202   0.0000
    96 H38         66.3469     5.1502     6.2205 H            1 1BV202   0.0000
    97 H39         65.6517     4.6634     7.6156 H            1 1BV202   0.0000
    98 H40         59.6960     2.9500     9.5701 H            1 1BV202   0.0000
    99 H41         56.2008     6.0522     8.4951 H            1 1BV202   0.0000
   100 H42         54.3087     6.8975     9.6984 H            1 1BV202   0.0000
   101 H43         58.5168     2.3669    13.7667 H            1 1BV202   0.0000
   102 H44         59.6863     0.7533    15.0971 H            1 1BV202   0.0000
   103 H45         60.5729     0.3455    13.7878 H            1 1BV202   0.0000
   104 H46         60.6974     1.8445    14.4236 H            1 1BV202   0.0000
   105 H47         57.5071     0.2650    14.0638 H            1 1BV202   0.0000
   106 H48         57.0248     1.0030    12.6892 H            1 1BV202   0.0000
   107 H49         58.1170    -0.2094    12.6252 H            1 1BV202   0.0000
   108 H50         51.7610     7.0804    12.1627 H            1 1BV202   0.0000
   109 H51         52.6659     7.4966    10.8686 H            1 1BV202   0.0000
   110 H52         52.0561     5.9864    10.9868 H            1 1BV202   0.0000
   111 H53         54.4598     4.9695    13.7793 H            1 1BV202   0.0000
   112 H54         55.1484     3.5233    13.4618 H            1 1BV202   0.0000
   113 H55         56.0621     4.7591    14.0137 H            1 1BV202   0.0000
@<TRIPOS>BOND
     1    1    2       1
     2    1    3       1
     3    2    3       1
     4    3    4       1
     5    3   40       1
     6    4    5       2
     7    4    6       2
     8    4    7       1
     9    7    8      am
    10    8    9       2
    11    8   10       1
    12   10   11       1
    13   10   12       1
    14   10   15       1
    15   11   12       1
    16   12   13       1
    17   13   14       1
    18   14   30       1
    19   15   16      am
    20   16   17       2
    21   16   18       1
    22   18   19       1
    23   18   22       1
    24   19   20       1
    25   20   21       1
    26   20   41       1
    27   21   22       1
    28   22   23      am
    29   23   24       2
    30   23   25       1
    31   25   26       1
    32   25   31       1
    33   26   27       1
    34   27   28       1
    35   28   29       1
    36   29   30       1
    37   31   32      am
    38   32   33       2
    39   32   34       1
    40   34   35       2
    41   34   38       1
    42   35   36       1
    43   36   37       1
    44   36   39       1
    45   37   38       2
    46   41   42       1
    47   42   43      ar
    48   42   47      ar
    49   43   44      ar
    50   44   45      ar
    51   44   52       1
    52   45   46      ar
    53   46   47      ar
    54   46   51      ar
    55   47   48      ar
    56   48   49      ar
    57   49   50      ar
    58   50   51      ar
    59   50   56       1
    60   51   58       1
    61   52   53       1
    62   53   54       1
    63   53   55       1
    64   56   57       1
    65    1   59       1
    66    1   60       1
    67    2   61       1
    68    2   62       1
    69    7   63       1
    70   11   64       1
    71   11   65       1
    72   12   66       1
    73   13   67       1
    74   13   68       1
    75   14   69       1
    76   14   70       1
    77   15   71       1
    78   18   72       1
    79   19   73       1
    80   19   74       1
    81   20   75       1
    82   21   76       1
    83   21   77       1
    84   25   78       1
    85   26   79       1
    86   26   80       1
    87   27   81       1
    88   27   82       1
    89   28   83       1
    90   28   84       1
    91   29   85       1
    92   29   86       1
    93   30   87       1
    94   30   88       1
    95   31   89       1
    96   37   90       1
    97   38   91       1
    98   39   92       1
    99   39   93       1
   100   39   94       1
   101   40   95       1
   102   40   96       1
   103   40   97       1
   104   43   98       1
   105   48   99       1
   106   49  100       1
   107   53  101       1
   108   54  102       1
   109   54  103       1
   110   54  104       1
   111   55  105       1
   112   55  106       1
   113   55  107       1
   114   57  108       1
   115   57  109       1
   116   57  110       1
   117   58  111       1
   118   58  112       1
   119   58  113       1
@<TRIPOS>SUBSTRUCTURE
     1 1BV202      1 GROUP             4 A     1BV     0 **** 1BV A 202
