@<TRIPOS>MOLECULE
3pqf_NAD_1_ligand
   70    74     1     0     0
SMALL
NO_CHARGES


@<TRIPOS>ATOM
     1 PA           3.0730   -28.5020    27.5580 P.3          1 NAD352   0.0000
     2 O1A          1.6160   -28.8140    27.5710 O.co2        1 NAD352   0.0000
     3 O2A          3.3850   -27.3410    26.6830 O.co2        1 NAD352  -1.0000
     4 O5B          3.8760   -29.8020    27.0470 O.3          1 NAD352   0.0000
     5 C5B          3.7190   -31.0690    27.6270 C.3          1 NAD352   0.0000
     6 C4B          4.0220   -32.0530    26.5130 C.3          1 NAD352   0.0000
     7 O4B          4.1020   -33.3640    27.0340 O.3          1 NAD352   0.0000
     8 C3B          2.9110   -32.0580    25.4700 C.3          1 NAD352   0.0000
     9 O3B          3.4460   -31.7750    24.1920 O.3          1 NAD352   0.0000
    10 C2B          2.3360   -33.4690    25.5240 C.3          1 NAD352   0.0000
    11 O2B          1.9240   -33.9720    24.2640 O.3          1 NAD352   0.0000
    12 C1B          3.5130   -34.2400    26.0940 C.3          1 NAD352   0.0000
    13 N9A          3.1490   -35.5490    26.6740 N.pl3        1 NAD352   0.0000
    14 C8A          2.1010   -35.8360    27.5150 C.2          1 NAD352   0.0000
    15 N7A          2.1410   -37.1610    27.8000 N.2          1 NAD352   0.0000
    16 C5A          3.1960   -37.7130    27.1550 C.ar         1 NAD352   0.0000
    17 C6A          3.6870   -39.0150    27.1000 C.ar         1 NAD352   0.0000
    18 N6A          2.9510   -40.0000    27.6210 N.pl3        1 NAD352   0.0000
    19 N1A          4.8170   -39.2920    26.3330 N.ar         1 NAD352   0.0000
    20 C2A          5.4490   -38.2820    25.6230 C.ar         1 NAD352   0.0000
    21 N3A          4.9500   -36.9920    25.6870 N.ar         1 NAD352   0.0000
    22 C4A          3.8440   -36.7130    26.4400 C.ar         1 NAD352   0.0000
    23 O3           3.5740   -28.2560    29.0680 O.3          1 NAD352   0.0000
    24 PN           4.9510   -27.4970    29.4210 P.3          1 NAD352   0.0000
    25 O1N          4.6450   -26.0860    29.7590 O.co2        1 NAD352   0.0000
    26 O2N          5.9230   -27.8210    28.3470 O.co2        1 NAD352  -1.0000
    27 O5D          5.3610   -28.2040    30.8150 O.3          1 NAD352   0.0000
    28 C5D          5.4900   -29.6080    30.9000 C.3          1 NAD352   0.0000
    29 C4D          4.6830   -30.1420    32.0810 C.3          1 NAD352   0.0000
    30 O4D          5.0510   -29.5020    33.2950 O.3          1 NAD352   0.0000
    31 C3D          3.1870   -29.8870    31.9390 C.3          1 NAD352   0.0000
    32 O3D          2.5360   -30.8740    31.1790 O.3          1 NAD352   0.0000
    33 C2D          2.7170   -29.8760    33.3750 C.3          1 NAD352   0.0000
    34 O2D          2.4900   -31.1860    33.8460 O.3          1 NAD352   0.0000
    35 C1D          3.9060   -29.2840    34.1120 C.3          1 NAD352   0.0000
    36 N1N          3.6440   -27.8420    34.3030 N.ar         1 NAD352   1.0000
    37 C2N          4.3630   -26.9040    33.6090 C.ar         1 NAD352   0.0000
    38 C3N          4.1200   -25.5410    33.7900 C.ar         1 NAD352   0.0000
    39 C7N          5.0660   -24.5150    33.2150 C.2          1 NAD352   0.0000
    40 O7N          5.4547   -23.4156    34.0129 O.2          1 NAD352   0.0000
    41 N7N          5.5012   -24.6547    31.9627 N.am         1 NAD352   0.0000
    42 C4N          3.1380   -25.1440    34.6960 C.ar         1 NAD352   0.0000
    43 C5N          2.4180   -26.1070    35.3990 C.ar         1 NAD352   0.0000
    44 C6N          2.6820   -27.4560    35.1960 C.ar         1 NAD352   0.0000
    45 H5B1         2.7831   -31.1903    27.9578 H            1 NAD352   0.0000
    46 H5B2         4.3590   -31.1896    28.3858 H            1 NAD352   0.0000
    47 H4B          4.8894   -31.8111    26.0782 H            1 NAD352   0.0000
    48 H3B          2.2083   -31.3876    25.7083 H            1 NAD352   0.0000
    49 H5           4.1244   -32.4698    23.9533 H            1 NAD352   0.0000
    50 H2B          1.5701   -33.4976    26.1663 H            1 NAD352   0.0000
    51 H7           2.6888   -34.4467    23.8283 H            1 NAD352   0.0000
    52 H1B          4.1708   -34.3964    25.3572 H            1 NAD352   0.0000
    53 H8A          1.4265   -35.1818    27.8572 H            1 NAD352   0.0000
    54 H6A1         3.2845   -40.9423    27.5923 H            1 NAD352   0.0000
    55 H6A2         2.0663   -39.7953    28.0399 H            1 NAD352   0.0000
    56 H2A          6.2575   -38.4835    25.0701 H            1 NAD352   0.0000
    57 H5D1         6.4537   -29.8441    31.0249 H            1 NAD352   0.0000
    58 H5D2         5.1521   -30.0224    30.0549 H            1 NAD352   0.0000
    59 H4D          4.8410   -31.1256    32.1680 H            1 NAD352   0.0000
    60 H3D          3.0351   -28.9886    31.5270 H            1 NAD352   0.0000
    61 H17          2.5410   -30.6094    30.2146 H            1 NAD352   0.0000
    62 H2D          1.9028   -29.3059    33.4849 H            1 NAD352   0.0000
    63 H19          1.5417   -31.4460    33.6641 H            1 NAD352   0.0000
    64 H1D          4.0226   -29.7341    34.9973 H            1 NAD352   0.0000
    65 H2N          5.0696   -27.1991    32.9658 H            1 NAD352   0.0000
    66 H7N1         6.1056   -23.9652    31.5635 H            1 NAD352   0.0000
    67 H7N2         5.2233   -25.4490    31.4224 H            1 NAD352   0.0000
    68 H4N          2.9513   -24.1723    34.8406 H            1 NAD352   0.0000
    69 H5N          1.7116   -25.8277    36.0494 H            1 NAD352   0.0000
    70 H6N          2.1674   -28.1467    35.7041 H            1 NAD352   0.0000
@<TRIPOS>BOND
     1    1    2      ar
     2    1    3      ar
     3    1    4       1
     4    1   23       1
     5    4    5       1
     6    5    6       1
     7    6    7       1
     8    6    8       1
     9    7   12       1
    10    8    9       1
    11    8   10       1
    12   10   11       1
    13   10   12       1
    14   12   13       1
    15   13   14       1
    16   13   22       1
    17   14   15       2
    18   15   16       1
    19   16   17      ar
    20   16   22      ar
    21   17   18       1
    22   17   19      ar
    23   19   20      ar
    24   20   21      ar
    25   21   22      ar
    26   23   24       1
    27   24   25      ar
    28   24   26      ar
    29   24   27       1
    30   27   28       1
    31   28   29       1
    32   29   30       1
    33   29   31       1
    34   30   35       1
    35   31   32       1
    36   31   33       1
    37   33   34       1
    38   33   35       1
    39   35   36       1
    40   36   37      ar
    41   36   44      ar
    42   37   38      ar
    43   38   39       1
    44   38   42      ar
    45   39   40       2
    46   39   41      am
    47   42   43      ar
    48   43   44      ar
    49   44   70       1
    50    5   45       1
    51    5   46       1
    52    6   47       1
    53    8   48       1
    54    9   49       1
    55   10   50       1
    56   11   51       1
    57   12   52       1
    58   14   53       1
    59   18   54       1
    60   18   55       1
    61   20   56       1
    62   43   69       1
    63   28   57       1
    64   28   58       1
    65   29   59       1
    66   31   60       1
    67   32   61       1
    68   33   62       1
    69   34   63       1
    70   35   64       1
    71   37   65       1
    72   41   66       1
    73   41   67       1
    74   42   68       1
@<TRIPOS>SUBSTRUCTURE
     1 NAD352      1 GROUP             4 C     NAD     0 **** NAD C 352
