@<TRIPOS>MOLECULE
5c50_BEN_1_ligand
   18    18     1     0     0
SMALL
NO_CHARGES


@<TRIPOS>ATOM
     1 C1          37.5820    35.2230     4.0880 C.ar         1 BEN201   0.0000
     2 C2          38.1070    34.2020     3.3110 C.ar         1 BEN201   0.0000
     3 C3          39.4290    33.8200     3.4740 C.ar         1 BEN201   0.0000
     4 C4          40.2190    34.4620     4.4150 C.ar         1 BEN201   0.0000
     5 C5          39.6940    35.4830     5.1900 C.ar         1 BEN201   0.0000
     6 C6          38.3740    35.8690     5.0260 C.ar         1 BEN201   0.0000
     7 C           36.1300    35.6480     3.9100 C.cat        1 BEN201   0.0000
     8 N1          35.3280    34.8830     3.3270 N.pl3        1 BEN201   1.0000
     9 N2          35.6910    36.9310     4.4210 N.pl3        1 BEN201   0.0000
    10 H1          37.5326    33.7419     2.6340 H            1 BEN201   0.0000
    11 H2          39.8116    33.0843     2.9151 H            1 BEN201   0.0000
    12 H3          41.1728    34.1866     4.5349 H            1 BEN201   0.0000
    13 H4          40.2683    35.9416     5.8682 H            1 BEN201   0.0000
    14 H5          37.9940    36.6092     5.5807 H            1 BEN201   0.0000
    15 H6          34.3736    35.1564     3.2071 H            1 BEN201   0.0000
    16 H7          35.6420    33.9987     2.9813 H            1 BEN201   0.0000
    17 H8          34.7391    37.2154     4.3071 H            1 BEN201   0.0000
    18 H9          36.3400    37.5320     4.8875 H            1 BEN201   0.0000
@<TRIPOS>BOND
     1    1    2      ar
     2    1    6      ar
     3    1    7       1
     4    2    3      ar
     5    3    4      ar
     6    4    5      ar
     7    5    6      ar
     8    7    8      ar
     9    7    9      ar
    10    2   10       1
    11    3   11       1
    12    4   12       1
    13    5   13       1
    14    6   14       1
    15    8   15       1
    16    8   16       1
    17    9   17       1
    18    9   18       1
@<TRIPOS>SUBSTRUCTURE
     1 BEN201      1 GROUP             4 A     BEN     0 **** BEN A 201
