@<TRIPOS>MOLECULE
2cu0_XMP_1_ligand
   35    37     1     0     0
SMALL
NO_CHARGES


@<TRIPOS>ATOM
     1 P           22.3900     2.6490    48.8080 P.3          1 XMP1001   0.0000
     2 O1P         20.8700     2.6470    49.2890 O.co2        1 XMP1001   0.0000
     3 O2P         23.0060     4.1240    48.9130 O.co2        1 XMP1001  -1.0000
     4 O5'         23.1720     1.6120    49.7530 O.3          1 XMP1001   0.0000
     5 O3P         22.4240     2.1930    47.4060 O.co2        1 XMP1001  -1.0000
     6 C5'         24.5610     1.5840    49.4670 C.3          1 XMP1001   0.0000
     7 C4'         25.1650     0.5620    50.4360 C.3          1 XMP1001   0.0000
     8 O4'         24.6610    -0.7880    50.1600 O.3          1 XMP1001   0.0000
     9 C1'         25.7100    -1.7470    50.5220 C.3          1 XMP1001   0.0000
    10 N9          25.7830    -2.8480    49.5160 N.pl3        1 XMP1001   0.0000
    11 C4          25.2530    -4.1050    49.6110 C.2          1 XMP1001   0.0000
    12 N3          24.5140    -4.7890    50.5740 N.pl3        1 XMP1001   0.0000
    13 N1          24.4260    -6.7490    49.2280 N.pl3        1 XMP1001   0.0000
    14 C2          24.1200    -6.0780    50.3680 C.2          1 XMP1001   0.0000
    15 O2          23.4800    -6.6420    51.2260 O.2          1 XMP1001   0.0000
    16 C6          25.1490    -6.1570    48.2280 C.2          1 XMP1001   0.0000
    17 O6          25.4210    -6.7660    47.2050 O.2          1 XMP1001   0.0000
    18 C5          25.5960    -4.7630    48.4110 C.2          1 XMP1001   0.0000
    19 N7          26.3040    -3.9000    47.6570 N.2          1 XMP1001   0.0000
    20 C8          26.4180    -2.7780    48.2940 C.2          1 XMP1001   0.0000
    21 C2'         27.0590    -0.9960    50.5330 C.3          1 XMP1001   0.0000
    22 O2'         27.3780    -1.1080    51.9310 O.3          1 XMP1001   0.0000
    23 C3'         26.6960     0.4750    50.3480 C.3          1 XMP1001   0.0000
    24 O3'         27.3860     1.3010    51.2970 O.3          1 XMP1001   0.0000
    25 H5'1        24.9656     2.4864    49.6155 H            1 XMP1001   0.0000
    26 H5'2        24.7162     1.3008    48.5206 H            1 XMP1001   0.0000
    27 H4'         24.9108     0.8152    51.3694 H            1 XMP1001   0.0000
    28 H1'         25.5251    -2.1267    51.4284 H            1 XMP1001   0.0000
    29 H5          24.2694    -4.3286    51.4273 H            1 XMP1001   0.0000
    30 H6          24.1173    -7.6936    49.1169 H            1 XMP1001   0.0000
    31 H7          26.8996    -1.9729    47.9477 H            1 XMP1001   0.0000
    32 H2'         27.7522    -1.3494    49.9048 H            1 XMP1001   0.0000
    33 H9          27.4604    -0.1940    52.3284 H            1 XMP1001   0.0000
    34 H3'         26.9739     0.7537    49.4287 H            1 XMP1001   0.0000
    35 H11         26.8281     1.3994    52.1210 H            1 XMP1001   0.0000
@<TRIPOS>BOND
     1    1    2      ar
     2    1    3      ar
     3    1    4       1
     4    1    5      ar
     5    4    6       1
     6    6    7       1
     7    7    8       1
     8    7   23       1
     9    8    9       1
    10    9   10       1
    11    9   21       1
    12   10   11       1
    13   10   20       1
    14   11   12       1
    15   11   18       2
    16   12   14       1
    17   13   14       1
    18   13   16       1
    19   14   15       2
    20   16   17       2
    21   16   18       1
    22   18   19       1
    23   19   20       2
    24   21   22       1
    25   21   23       1
    26   23   24       1
    27   24   35       1
    28   23   34       1
    29    6   25       1
    30    6   26       1
    31    7   27       1
    32    9   28       1
    33   12   29       1
    34   13   30       1
    35   20   31       1
    36   21   32       1
    37   22   33       1
@<TRIPOS>SUBSTRUCTURE
     1 XMP1001     1 GROUP             4 A     XMP     0 **** XMP A1001
