@<TRIPOS>MOLECULE
1c4u_IH1_1_ligand
   62    65     1     0     0
SMALL
NO_CHARGES


@<TRIPOS>ATOM
     1 C27         21.9140   -15.0870    25.5810 C.ar         1 IH1370   0.0000
     2 C28         21.0480   -14.3190    26.2120 C.ar         1 IH1370   0.0000
     3 C29         19.8910   -14.9510    26.5140 C.ar         1 IH1370   0.0000
     4 C24         19.6460   -16.2650    26.1410 C.ar         1 IH1370   0.0000
     5 C25         20.5030   -16.9760    25.4410 C.ar         1 IH1370   0.0000
     6 C26         21.6750   -16.3910    25.1330 C.ar         1 IH1370   0.0000
     7 BR          23.4420   -14.3210    25.1250 Br           1 IH1370   0.0000
     8 S           18.1600   -17.1020    26.4320 S.o2         1 IH1370   0.0000
     9 O1          17.2280   -16.0250    26.7360 O.2          1 IH1370   0.0000
    10 O2          18.4440   -17.9820    27.5840 O.2          1 IH1370   0.0000
    11 C23         17.6480   -17.9860    25.0220 C.3          1 IH1370   0.0000
    12 C22         17.0590   -17.1230    23.8100 C.3          1 IH1370   0.0000
    13 C13         18.4770   -13.0140    21.7470 C.3          1 IH1370   0.0000
    14 C14         19.7290   -12.8770    21.1120 C.2          1 IH1370   0.0000
    15 C15         20.6890   -13.7440    20.8150 C.2          1 IH1370   0.0000
    16 C16         20.4550   -15.1580    21.2980 C.3          1 IH1370   0.0000
    17 C19         19.0290   -16.4530    22.6890 C.2          1 IH1370   0.0000
    18 C21         17.5700   -14.8640    23.0450 C.2          1 IH1370   0.0000
    19 N17         19.2900   -15.2970    21.9610 N.pl3        1 IH1370   0.0000
    20 N18         18.5340   -14.2870    22.4350 N.pl3        1 IH1370   0.0000
    21 O21         16.5860   -14.3920    23.3750 O.2          1 IH1370   0.0000
    22 O19         19.7750   -17.4080    22.5830 O.2          1 IH1370   0.0000
    23 N20         17.8950   -16.2050    23.2180 N.pl3        1 IH1370   0.0000
    24 C12         17.1880   -12.6810    20.7050 C.2          1 IH1370   0.0000
    25 O12         17.3750   -12.1980    19.5280 O.2          1 IH1370   0.0000
    26 C1          14.8760   -12.1880    20.4480 C.2          1 IH1370   0.0000
    27 C2          13.6350   -12.0180    21.1120 C.3          1 IH1370   0.0000
    28 C3          13.1260   -10.6710    21.5830 C.3          1 IH1370   0.0000
    29 C4          11.9440   -10.7790    22.3690 C.3          1 IH1370   0.0000
    30 C5          12.2410   -11.6020    23.7210 C.3          1 IH1370   0.0000
    31 C6          12.5930   -12.9820    23.0890 C.2          1 IH1370   0.0000
    32 N9          15.8230   -12.4690    20.9900 N.2          1 IH1370   0.0000
    33 C7          13.5510   -13.1730    22.1480 C.2          1 IH1370   0.0000
    34 C8          10.9750   -11.8100    24.2710 C.cat        1 IH1370   0.0000
    35 N11         10.3730   -12.9340    24.2100 N.pl3        1 IH1370   1.0000
    36 N10         10.4990   -10.8270    24.9970 N.pl3        1 IH1370   0.0000
    37 H1          21.2287   -13.3633    26.4444 H            1 IH1370   0.0000
    38 H2          19.1882   -14.4545    27.0234 H            1 IH1370   0.0000
    39 H3          20.2930   -17.9096    25.1507 H            1 IH1370   0.0000
    40 H4          22.3620   -16.8787    24.5943 H            1 IH1370   0.0000
    41 H5          16.9387   -18.6300    25.3087 H            1 IH1370   0.0000
    42 H6          18.4386   -18.4924    24.6778 H            1 IH1370   0.0000
    43 H7          16.2641   -16.6246    24.1559 H            1 IH1370   0.0000
    44 H8          16.7675   -17.7640    23.1000 H            1 IH1370   0.0000
    45 H9          18.4477   -12.3131    22.4596 H            1 IH1370   0.0000
    46 H10         19.9342   -11.9400    20.8293 H            1 IH1370   0.0000
    47 H11         21.5095   -13.4808    20.3075 H            1 IH1370   0.0000
    48 H12         21.2033   -15.4147    21.9096 H            1 IH1370   0.0000
    49 H13         20.4470   -15.7689    20.5063 H            1 IH1370   0.0000
    50 H14         14.9124   -12.0530    19.4578 H            1 IH1370   0.0000
    51 H15         12.9663   -12.2848    20.4180 H            1 IH1370   0.0000
    52 H16         12.9282   -10.1052    20.7825 H            1 IH1370   0.0000
    53 H17         13.8377   -10.2336    22.1327 H            1 IH1370   0.0000
    54 H18         11.2401   -11.2549    21.8416 H            1 IH1370   0.0000
    55 H19         11.6209    -9.8627    22.6055 H            1 IH1370   0.0000
    56 H20         12.9279   -11.2101    24.3330 H            1 IH1370   0.0000
    57 H21         12.0776   -13.7812    23.3982 H            1 IH1370   0.0000
    58 H22         14.1445   -13.9775    22.1234 H            1 IH1370   0.0000
    59 H23          9.4660   -13.0382    24.6181 H            1 IH1370   0.0000
    60 H24         10.8084   -13.7103    23.7541 H            1 IH1370   0.0000
    61 H25          9.5971   -10.9097    25.4209 H            1 IH1370   0.0000
    62 H26         11.0380    -9.9947    25.1267 H            1 IH1370   0.0000
@<TRIPOS>BOND
     1    1    2      ar
     2    1    6      ar
     3    1    7       1
     4    2    3      ar
     5    3    4      ar
     6    4    5      ar
     7    4    8       1
     8    5    6      ar
     9    8    9       2
    10    8   10       2
    11    8   11       1
    12   11   12       1
    13   12   23       1
    14   13   14       1
    15   13   20       1
    16   13   24       1
    17   14   15       2
    18   15   16       1
    19   16   19       1
    20   17   19       1
    21   17   22       2
    22   17   23       1
    23   18   20       1
    24   18   21       2
    25   18   23       1
    26   19   20       1
    27   24   25       2
    28   24   32       1
    29   26   27       1
    30   26   32       2
    31   27   28       1
    32   27   33       1
    33   28   29       1
    34   29   30       1
    35   30   31       1
    36   30   34       1
    37   31   33       2
    38   34   35      ar
    39   34   36      ar
    40    2   37       1
    41    3   38       1
    42    5   39       1
    43    6   40       1
    44   11   41       1
    45   11   42       1
    46   12   43       1
    47   12   44       1
    48   13   45       1
    49   14   46       1
    50   15   47       1
    51   16   48       1
    52   16   49       1
    53   26   50       1
    54   27   51       1
    55   28   52       1
    56   28   53       1
    57   29   54       1
    58   29   55       1
    59   30   56       1
    60   31   57       1
    61   33   58       1
    62   35   59       1
    63   35   60       1
    64   36   61       1
    65   36   62       1
@<TRIPOS>SUBSTRUCTURE
     1 IH1370      1 GROUP             4 2     IH1     0 **** IH1 2 370
