@<TRIPOS>MOLECULE
4kf1_HT5_1_ligand
   43    43     1     0     0
SMALL
NO_CHARGES


@<TRIPOS>ATOM
     1 O1          18.7220   -17.1770   -12.2890 O.2          1 HT5403   0.0000
     2 C10         17.6000   -16.8330   -11.9360 C.2          1 HT5403   0.0000
     3 N2          17.3690   -15.8560   -11.0450 N.am         1 HT5403   0.0000
     4 SD          20.5000   -14.3670   -11.5440 S.3          1 HT5403   0.0000
     5 C11         18.4500   -15.3080   -10.2410 C.3          1 HT5403   0.0000
     6 C12         19.0880   -14.1060   -10.8940 C.2          1 HT5403   0.0000
     7 O2          18.5140   -12.8860   -10.9210 O.2          1 HT5403   0.0000
     8 C13         19.5750   -16.3690   -10.0640 C.3          1 HT5403   0.0000
     9 C14         20.8370   -16.0880   -11.1290 C.3          1 HT5403   0.0000
    10 C9          16.3860   -17.5210   -12.5140 C.3          1 HT5403   0.0000
    11 C2          16.0430   -18.7290   -11.6540 C.3          1 HT5403   0.0000
    12 C1          14.6740   -19.2820   -12.0220 C.3          1 HT5403   0.0000
    13 C50         14.3770   -20.5450   -11.2290 C.3          1 HT5403   0.0000
    14 C8          13.4270   -25.8840   -13.1340 C.3          1 HT5403   0.0000
    15 C6          14.2580   -24.7740   -13.7420 C.3          1 HT5403   0.0000
    16 C3          13.5130   -21.5000   -12.0410 C.3          1 HT5403   0.0000
    17 C4          14.3850   -22.4230   -12.8800 C.3          1 HT5403   0.0000
    18 C5          13.5340   -23.4380   -13.6300 C.3          1 HT5403   0.0000
    19 H1          16.4412   -15.5002   -10.9325 H            1 HT5403   0.0000
    20 H2          18.0957   -15.0479    -9.3428 H            1 HT5403   0.0000
    21 H3          19.1971   -17.2785   -10.2372 H            1 HT5403   0.0000
    22 H4          19.9217   -16.3250    -9.1271 H            1 HT5403   0.0000
    23 H5          21.7281   -16.1978   -10.6886 H            1 HT5403   0.0000
    24 H6          20.7866   -16.6819   -11.9319 H            1 HT5403   0.0000
    25 H7          16.5830   -17.8196   -13.4478 H            1 HT5403   0.0000
    26 H8          15.6136   -16.8860   -12.5230 H            1 HT5403   0.0000
    27 H9          16.0387   -18.4561   -10.6920 H            1 HT5403   0.0000
    28 H10         16.7326   -19.4391   -11.7960 H            1 HT5403   0.0000
    29 H11         14.6574   -19.4956   -12.9988 H            1 HT5403   0.0000
    30 H12         13.9764   -18.5948   -11.8192 H            1 HT5403   0.0000
    31 H13         13.8937   -20.2990   -10.3888 H            1 HT5403   0.0000
    32 H14         15.2383   -20.9975   -10.9978 H            1 HT5403   0.0000
    33 H15         13.9177   -26.7514   -13.2168 H            1 HT5403   0.0000
    34 H16         13.2615   -25.6856   -12.1680 H            1 HT5403   0.0000
    35 H17         12.5530   -25.9482   -13.6156 H            1 HT5403   0.0000
    36 H18         14.4233   -24.9782   -14.7069 H            1 HT5403   0.0000
    37 H19         15.1318   -24.7156   -13.2592 H            1 HT5403   0.0000
    38 H20         12.9163   -20.9716   -12.6450 H            1 HT5403   0.0000
    39 H21         12.9553   -22.0494   -11.4188 H            1 HT5403   0.0000
    40 H22         15.0209   -22.9082   -12.2798 H            1 HT5403   0.0000
    41 H23         14.9007   -21.8764   -13.5398 H            1 HT5403   0.0000
    42 H24         12.6736   -23.5716   -13.1382 H            1 HT5403   0.0000
    43 H25         13.3427   -23.0908   -14.5481 H            1 HT5403   0.0000
@<TRIPOS>BOND
     1    1    2       2
     2    2    3      am
     3    2   10       1
     4    3    5       1
     5    4    6       1
     6    4    9       1
     7    5    6       1
     8    5    8       1
     9    6    7       2
    10    8    9       1
    11   10   11       1
    12   11   12       1
    13   12   13       1
    14   13   16       1
    15   14   15       1
    16   15   18       1
    17   16   17       1
    18   17   18       1
    19    3   19       1
    20    5   20       1
    21    8   21       1
    22    8   22       1
    23    9   23       1
    24    9   24       1
    25   10   25       1
    26   10   26       1
    27   11   27       1
    28   11   28       1
    29   12   29       1
    30   12   30       1
    31   13   31       1
    32   13   32       1
    33   14   33       1
    34   14   34       1
    35   14   35       1
    36   15   36       1
    37   15   37       1
    38   16   38       1
    39   16   39       1
    40   17   40       1
    41   17   41       1
    42   18   42       1
    43   18   43       1
@<TRIPOS>SUBSTRUCTURE
     1 HT5403      1 GROUP             4 A     HT5     0 **** HT5 A 403
