@<TRIPOS>MOLECULE
3c1k_T15_1_ligand
   72    74     1     0     0
SMALL
NO_CHARGES


@<TRIPOS>ATOM
     1 C1          22.0550   -15.9300    25.2250 C.ar         1 T15403   0.0000
     2 C2          20.9050   -16.6570    25.5380 C.ar         1 T15403   0.0000
     3 C3          19.7870   -16.0110    26.0790 C.ar         1 T15403   0.0000
     4 C4          19.8140   -14.6410    26.3070 C.ar         1 T15403   0.0000
     5 C5          20.9650   -13.9140    25.9970 C.ar         1 T15403   0.0000
     6 C6          22.0830   -14.5580    25.4550 C.ar         1 T15403   0.0000
     7 C7          18.5680   -16.8090    26.4500 C.3          1 T15403   0.0000
     8 S8          17.6640   -17.4340    25.0350 S.o2         1 T15403   0.0000
     9 N9          17.0810   -16.1830    24.1820 N.pl3        1 T15403   0.0000
    10 C10         17.2530   -14.3100    22.6990 C.2          1 T15403   0.0000
    11 N11         18.0610   -13.6730    21.7500 N.pl3        1 T15403   0.0000
    12 C12         19.2830   -14.0830    21.3950 C.2          1 T15403   0.0000
    13 C13         19.8440   -15.2090    21.9830 C.2          1 T15403   0.0000
    14 C14         19.1220   -15.9120    22.9400 C.2          1 T15403   0.0000
    15 O15         16.1300   -13.8740    22.9590 O.2          1 T15403   0.0000
    16 C16         20.0230   -13.3520    20.3450 C.3          1 T15403   0.0000
    17 C17         17.5590   -12.4570    21.0970 C.3          1 T15403   0.0000
    18 C18         16.2630   -12.7260    20.4460 C.2          1 T15403   0.0000
    19 C19         17.8450   -15.4900    23.3030 C.2          1 T15403   0.0000
    20 N20         15.2740   -11.9350    20.8680 N.am         1 T15403   0.0000
    21 C22         12.8980   -12.2040    21.3910 C.2          1 T15403   0.0000
    22 N23         12.5000   -13.2800    22.0890 N.pl3        1 T15403   0.0000
    23 C24         11.5410   -12.8860    23.0000 C.2          1 T15403   0.0000
    24 N25         11.3760   -11.5340    22.8490 N.2          1 T15403   0.0000
    25 C26         12.1970   -11.1180    21.8500 C.2          1 T15403   0.0000
    26 C28         12.9950   -14.6520    21.9140 C.3          1 T15403   0.0000
    27 C29         12.3030   -15.3840    20.7710 C.2          1 T15403   0.0000
    28 N30         12.4130   -16.7130    20.8780 N.am         1 T15403   0.0000
    29 C31         11.8650   -17.5720    19.8440 C.3          1 T15403   0.0000
    30 C32         12.4320   -17.1660    18.4560 C.3          1 T15403   0.0000
    31 C33         10.3270   -17.4480    19.9020 C.3          1 T15403   0.0000
    32 C34         12.2480   -19.0410    20.0940 C.3          1 T15403   0.0000
    33 O35         11.7760   -14.8150    19.8290 O.2          1 T15403   0.0000
    34 O36         16.1320   -13.6700    19.6920 O.2          1 T15403   0.0000
    35 O37         16.5180   -18.1240    25.5420 O.2          1 T15403   0.0000
    36 O38         18.5610   -18.1490    24.1700 O.2          1 T15403   0.0000
    37 C8          12.2880    -9.7380    21.3810 C.3          1 T15403   0.0000
    38 C9          13.9330   -12.1840    20.3020 C.3          1 T15403   0.0000
    39 H1          22.8530   -16.3921    24.8382 H            1 T15403   0.0000
    40 H2          20.8797   -17.6433    25.3751 H            1 T15403   0.0000
    41 H3          19.0146   -14.1786    26.6905 H            1 T15403   0.0000
    42 H4          20.9906   -12.9282    26.1631 H            1 T15403   0.0000
    43 H5          22.9034   -14.0312    25.2326 H            1 T15403   0.0000
    44 H6          17.9567   -16.2237    26.9826 H            1 T15403   0.0000
    45 H7          18.8567   -17.5860    27.0094 H            1 T15403   0.0000
    46 H8          16.1262   -15.9144    24.3091 H            1 T15403   0.0000
    47 H9          20.7601   -15.5116    21.7199 H            1 T15403   0.0000
    48 H10         19.5201   -16.7228    23.3691 H            1 T15403   0.0000
    49 H11         20.9128   -13.7852    20.2013 H            1 T15403   0.0000
    50 H12         19.5004   -13.3733    19.4927 H            1 T15403   0.0000
    51 H13         20.1565   -12.4030    20.6306 H            1 T15403   0.0000
    52 H14         18.2184   -12.1558    20.4082 H            1 T15403   0.0000
    53 H15         17.4414   -11.7385    21.7825 H            1 T15403   0.0000
    54 H16         15.4337   -11.2081    21.5359 H            1 T15403   0.0000
    55 H17         11.0581   -13.4754    23.6476 H            1 T15403   0.0000
    56 H18         12.8376   -15.1596    22.7611 H            1 T15403   0.0000
    57 H19         13.9761   -14.6166    21.7240 H            1 T15403   0.0000
    58 H20         12.8726   -17.1146    21.6701 H            1 T15403   0.0000
    59 H21         12.0485   -17.7633    17.7516 H            1 T15403   0.0000
    60 H22         12.1846   -16.2173    18.2594 H            1 T15403   0.0000
    61 H23         13.4279   -17.2561    18.4634 H            1 T15403   0.0000
    62 H24          9.9189   -18.0304    19.1989 H            1 T15403   0.0000
    63 H25         10.0031   -17.7364    20.8030 H            1 T15403   0.0000
    64 H26         10.0630   -16.4969    19.7416 H            1 T15403   0.0000
    65 H27         11.8610   -19.6140    19.3715 H            1 T15403   0.0000
    66 H28         13.2440   -19.1306    20.0930 H            1 T15403   0.0000
    67 H29         11.8879   -19.3332    20.9800 H            1 T15403   0.0000
    68 H30         11.6563    -9.1658    21.9040 H            1 T15403   0.0000
    69 H31         13.2222    -9.4041    21.5067 H            1 T15403   0.0000
    70 H32         12.0478    -9.6991    20.4111 H            1 T15403   0.0000
    71 H33         13.9329   -13.0665    19.8316 H            1 T15403   0.0000
    72 H34         13.7110   -11.4588    19.6502 H            1 T15403   0.0000
@<TRIPOS>BOND
     1    1    2      ar
     2    1    6      ar
     3    2    3      ar
     4    3    4      ar
     5    3    7       1
     6    4    5      ar
     7    5    6      ar
     8    7    8       1
     9    8    9       1
    10    8   35       2
    11    8   36       2
    12    9   19       1
    13   10   11       1
    14   10   15       2
    15   10   19       1
    16   11   12       1
    17   11   17       1
    18   12   13       2
    19   12   16       1
    20   13   14       1
    21   14   19       2
    22   17   18       1
    23   18   20      am
    24   18   34       2
    25   20   38       1
    26   21   22       1
    27   21   25       2
    28   21   38       1
    29   22   23       1
    30   22   26       1
    31   23   24       2
    32   24   25       1
    33   25   37       1
    34   26   27       1
    35   27   28      am
    36   27   33       2
    37   28   29       1
    38   29   30       1
    39   29   31       1
    40   29   32       1
    41    1   39       1
    42    2   40       1
    43    4   41       1
    44    5   42       1
    45    6   43       1
    46    7   44       1
    47    7   45       1
    48    9   46       1
    49   13   47       1
    50   14   48       1
    51   16   49       1
    52   16   50       1
    53   16   51       1
    54   17   52       1
    55   17   53       1
    56   20   54       1
    57   23   55       1
    58   26   56       1
    59   26   57       1
    60   28   58       1
    61   30   59       1
    62   30   60       1
    63   30   61       1
    64   31   62       1
    65   31   63       1
    66   31   64       1
    67   32   65       1
    68   32   66       1
    69   32   67       1
    70   37   68       1
    71   37   69       1
    72   37   70       1
    73   38   71       1
    74   38   72       1
@<TRIPOS>SUBSTRUCTURE
     1 T15403      1 GROUP             4 A     T15     0 **** T15 A 403
