@<TRIPOS>MOLECULE
3rs7_GNP_1_ligand
   45    47     1     0     0
SMALL
NO_CHARGES


@<TRIPOS>ATOM
     1 PG         -10.0300    65.1780   -67.5410 P.3          1 GNP190   0.0000
     2 O1G         -9.0950    64.8100   -66.3830 O.co2        1 GNP190   0.0000
     3 O2G        -10.9890    66.2550   -67.1200 O.co2        1 GNP190  -1.0000
     4 O3G        -10.6870    63.9290   -68.0390 O.co2        1 GNP190  -1.0000
     5 N3B         -9.1270    65.7700   -68.7600 N.3          1 GNP190   0.0000
     6 PB          -9.6310    66.3930   -70.1740 P.3          1 GNP190   0.0000
     7 O1B         -9.9970    65.3370   -71.1540 O.co2        1 GNP190   0.0000
     8 O2B        -10.7000    67.3890   -69.9280 O.co2        1 GNP190  -1.0000
     9 O3A         -8.4030    67.1530   -70.7510 O.3          1 GNP190   0.0000
    10 PA          -8.0750    68.6890   -70.7960 P.3          1 GNP190   0.0000
    11 O1A         -8.9850    69.4410   -71.6970 O.co2        1 GNP190   0.0000
    12 O2A         -7.8870    69.1760   -69.4040 O.co2        1 GNP190  -1.0000
    13 O5'         -6.6670    68.7550   -71.5200 O.3          1 GNP190   0.0000
    14 C5'         -5.5370    68.0470   -71.0140 C.3          1 GNP190   0.0000
    15 C4'         -4.2660    68.6860   -71.5500 C.3          1 GNP190   0.0000
    16 O4'         -4.2000    68.5180   -72.9890 O.3          1 GNP190   0.0000
    17 C3'         -4.1280    70.1900   -71.3100 C.3          1 GNP190   0.0000
    18 O3'         -2.7700    70.4920   -71.0220 O.3          1 GNP190   0.0000
    19 C2'         -4.5620    70.8010   -72.6440 C.3          1 GNP190   0.0000
    20 O2'         -3.9770    72.0530   -72.9440 O.3          1 GNP190   0.0000
    21 C1'         -4.0650    69.7560   -73.6470 C.3          1 GNP190   0.0000
    22 N9          -4.8530    69.7040   -74.8780 N.pl3        1 GNP190   0.0000
    23 C8          -6.2090    69.4950   -74.9820 C.2          1 GNP190   0.0000
    24 N7          -6.6340    69.5130   -76.2100 N.2          1 GNP190   0.0000
    25 C5          -5.5050    69.7270   -76.9820 C.2          1 GNP190   0.0000
    26 C6          -5.3550    69.8300   -78.3890 C.2          1 GNP190   0.0000
    27 O6          -6.2360    69.7400   -79.2690 O.2          1 GNP190   0.0000
    28 N1          -4.0240    70.0610   -78.7450 N.pl3        1 GNP190   0.0000
    29 C2          -2.9760    70.1780   -77.8500 C.2          1 GNP190   0.0000
    30 N2          -1.7450    70.4080   -78.3560 N.pl3        1 GNP190   0.0000
    31 N3          -3.1160    70.0700   -76.5370 N.2          1 GNP190   0.0000
    32 C4          -4.3970    69.8440   -76.1710 C.2          1 GNP190   0.0000
    33 H3B         -8.5859    66.4995   -68.3417 H            1 GNP190   0.0000
    34 H5'1        -5.5812    67.0923   -71.3083 H            1 GNP190   0.0000
    35 H5'2        -5.5364    68.0882   -70.0148 H            1 GNP190   0.0000
    36 H4'         -3.4798    68.2245   -71.1391 H            1 GNP190   0.0000
    37 H3'         -4.7266    70.4902   -70.5673 H            1 GNP190   0.0000
    38 H6          -2.6733    71.4747   -70.8640 H            1 GNP190   0.0000
    39 H2'         -5.5589    70.8688   -72.6833 H            1 GNP190   0.0000
    40 H8          -4.5534    72.7856   -72.5820 H            1 GNP190   0.0000
    41 H1'         -3.1034    69.9230   -73.8648 H            1 GNP190   0.0000
    42 H10         -6.8059    69.3447   -74.1939 H            1 GNP190   0.0000
    43 H11         -3.8134    70.1482   -79.7187 H            1 GNP190   0.0000
    44 H12         -0.9610    70.4988   -77.7420 H            1 GNP190   0.0000
    45 H13         -1.6176    70.4875   -79.3447 H            1 GNP190   0.0000
@<TRIPOS>BOND
     1    1    2      ar
     2    1    3      ar
     3    1    4      ar
     4    1    5       1
     5    5    6       1
     6    6    7      ar
     7    6    8      ar
     8    6    9       1
     9    9   10       1
    10   10   11      ar
    11   10   12      ar
    12   10   13       1
    13   13   14       1
    14   14   15       1
    15   15   16       1
    16   15   17       1
    17   16   21       1
    18   17   18       1
    19   17   19       1
    20   19   20       1
    21   19   21       1
    22   21   22       1
    23   22   23       1
    24   22   32       1
    25   23   24       2
    26   24   25       1
    27   25   26       1
    28   25   32       2
    29   26   27       2
    30   26   28       1
    31   28   29       1
    32   29   30       1
    33   29   31       2
    34   31   32       1
    35   30   45       1
    36   30   44       1
    37    5   33       1
    38   28   43       1
    39   23   42       1
    40   14   34       1
    41   14   35       1
    42   15   36       1
    43   17   37       1
    44   18   38       1
    45   19   39       1
    46   20   40       1
    47   21   41       1
@<TRIPOS>SUBSTRUCTURE
     1 GNP190      1 GROUP             4 A     GNP     0 **** GNP A 190
