@<TRIPOS>MOLECULE
3ge6_FMN_1_ligand
   50    52     1     0     0
SMALL
NO_CHARGES


@<TRIPOS>ATOM
     1 N1          36.2050    88.4770    12.8120 N.2          1 FMN300   0.0000
     2 C2          37.4650    88.5140    12.2460 C.2          1 FMN300   0.0000
     3 O2          38.4510    88.1900    12.9120 O.2          1 FMN300   0.0000
     4 N3          37.6300    88.9140    10.9400 N.pl3        1 FMN300   0.0000
     5 C4          36.5640    89.3180    10.1700 C.2          1 FMN300   0.0000
     6 O4          36.7700    89.6630     8.9830 O.2          1 FMN300   0.0000
     7 C4A         35.2770    89.2790    10.7330 C.2          1 FMN300   0.0000
     8 N5          34.1520    89.6410     9.9950 N.2          1 FMN300   0.0000
     9 C5A         32.9010    89.2330    10.4220 C.ar         1 FMN300   0.0000
    10 C6          31.8160    89.1970     9.5310 C.ar         1 FMN300   0.0000
    11 C7          30.5580    88.7820     9.9790 C.ar         1 FMN300   0.0000
    12 C7M         29.3690    88.7030     9.0550 C.3          1 FMN300   0.0000
    13 C8          30.3800    88.4210    11.2990 C.ar         1 FMN300   0.0000
    14 C8M         29.0380    87.9560    11.8050 C.3          1 FMN300   0.0000
    15 C9          31.4570    88.4620    12.1790 C.ar         1 FMN300   0.0000
    16 C9A         32.7220    88.8470    11.7500 C.ar         1 FMN300   0.0000
    17 N10         33.8220    88.8500    12.6090 N.pl3        1 FMN300   0.0000
    18 C10         35.0990    88.8600    12.0490 C.2          1 FMN300   0.0000
    19 C1'         33.6770    88.2910    13.9880 C.3          1 FMN300   0.0000
    20 C2'         33.1440    89.3350    14.9440 C.3          1 FMN300   0.0000
    21 O2'         34.2090    90.2550    15.2720 O.3          1 FMN300   0.0000
    22 C3'         32.5630    88.6770    16.1760 C.3          1 FMN300   0.0000
    23 O3'         31.4400    87.8740    15.7630 O.3          1 FMN300   0.0000
    24 C4'         32.1810    89.6900    17.2520 C.3          1 FMN300   0.0000
    25 O4'         33.3190    90.3900    17.7300 O.3          1 FMN300   0.0000
    26 C5'         31.5580    89.0300    18.4470 C.3          1 FMN300   0.0000
    27 O5'         32.4170    88.0440    18.9680 O.3          1 FMN300   0.0000
    28 P           32.0240    86.4690    19.0120 P.3          1 FMN300   0.0000
    29 O1P         31.7540    85.8740    17.6680 O.co2        1 FMN300   0.0000
    30 O2P         30.7840    86.2890    19.8570 O.co2        1 FMN300  -1.0000
    31 O3P         33.2240    85.7590    19.6050 O.co2        1 FMN300  -1.0000
    32 H1          38.5469    88.9110    10.5409 H            1 FMN300   0.0000
    33 H2          31.9430    89.4680     8.5768 H            1 FMN300   0.0000
    34 H7M1        28.5699    88.3867     9.5663 H            1 FMN300   0.0000
    35 H7M2        29.1832    89.6082     8.6727 H            1 FMN300   0.0000
    36 H7M3        29.5653    88.0618     8.3132 H            1 FMN300   0.0000
    37 H8M1        29.1055    87.7406    12.7792 H            1 FMN300   0.0000
    38 H8M2        28.3616    88.6801    11.6698 H            1 FMN300   0.0000
    39 H8M3        28.7568    87.1390    11.3016 H            1 FMN300   0.0000
    40 H9          31.3186    88.2101    13.1368 H            1 FMN300   0.0000
    41 H1'1        34.5709    87.9791    14.3099 H            1 FMN300   0.0000
    42 H1'2        33.0435    87.5177    13.9622 H            1 FMN300   0.0000
    43 H2'         32.4165    89.8438    14.4838 H            1 FMN300   0.0000
    44 H13         34.0675    90.6133    16.1948 H            1 FMN300   0.0000
    45 H3'         33.2569    88.0664    16.5576 H            1 FMN300   0.0000
    46 H15         31.3435    87.0933    16.3804 H            1 FMN300   0.0000
    47 H4'         31.5324    90.3463    16.8666 H            1 FMN300   0.0000
    48 H17         33.7120    89.8968    18.5061 H            1 FMN300   0.0000
    49 H5'1        30.6947    88.6045    18.1754 H            1 FMN300   0.0000
    50 H5'2        31.3832    89.7193    19.1501 H            1 FMN300   0.0000
@<TRIPOS>BOND
     1    1    2       1
     2    1   18       2
     3    2    3       2
     4    2    4       1
     5    4    5       1
     6    5    6       2
     7    5    7       1
     8    7    8       2
     9    7   18       1
    10    8    9       1
    11    9   10      ar
    12    9   16      ar
    13   10   11      ar
    14   11   12       1
    15   11   13      ar
    16   13   14       1
    17   13   15      ar
    18   15   16      ar
    19   16   17       1
    20   17   18       1
    21   17   19       1
    22   19   20       1
    23   20   21       1
    24   20   22       1
    25   22   23       1
    26   22   24       1
    27   24   25       1
    28   24   26       1
    29   26   27       1
    30   27   28       1
    31   28   29      ar
    32   28   30      ar
    33   28   31      ar
    34    4   32       1
    35   10   33       1
    36   12   34       1
    37   12   35       1
    38   12   36       1
    39   14   37       1
    40   14   38       1
    41   14   39       1
    42   15   40       1
    43   19   41       1
    44   19   42       1
    45   20   43       1
    46   21   44       1
    47   22   45       1
    48   23   46       1
    49   24   47       1
    50   25   48       1
    51   26   49       1
    52   26   50       1
@<TRIPOS>SUBSTRUCTURE
     1 FMN300      1 GROUP             4 A     FMN     0 **** FMN A 300
