@<TRIPOS>MOLECULE
3ua8_08W_1_ligand
   43    45     1     0     0
SMALL
NO_CHARGES


@<TRIPOS>ATOM
     1 O37         42.8510    31.9680    13.9670 O.2          1 08W264   0.0000
     2 C36         42.4040    32.9360    13.3520 C.2          1 08W264   0.0000
     3 N38         41.0920    33.0300    13.0160 N.am         1 08W264   0.0000
     4 C40         40.1240    32.0010    13.4080 C.3          1 08W264   0.0000
     5 C33         43.3480    34.0060    12.9370 C.2          1 08W264   0.0000
     6 N32         44.5060    34.4820    13.6450 N.2          1 08W264   0.0000
     7 C30         45.0910    35.3980    12.9890 C.2          1 08W264   0.0000
     8 C34         43.3980    34.7820    11.8190 C.2          1 08W264   0.0000
     9 N29         44.4240    35.6180    11.8870 N.pl3        1 08W264   0.0000
    10 C6          44.7440    36.4420    10.8530 C.ar         1 08W264   0.0000
    11 C7          45.7690    35.9440    10.0430 C.ar         1 08W264   0.0000
    12 C9          46.2120    36.6690     8.9320 C.ar         1 08W264   0.0000
    13 C17         47.3090    36.1880     8.0330 C.2          1 08W264   0.0000
    14 O18         47.8430    35.1180     8.2820 O.2          1 08W264   0.0000
    15 N16         47.6720    36.9510     6.9750 N.pl3        1 08W264   0.0000
    16 N19         48.7500    36.4480     6.1540 N.3          1 08W264   0.0000
    17 S21         50.2720    37.0130     6.5610 S.o2         1 08W264   0.0000
    18 O23         50.2880    38.3970     7.0000 O.2          1 08W264   0.0000
    19 C24         50.7460    36.1130     8.0640 C.3          1 08W264   0.0000
    20 O22         51.2560    36.7010     5.5420 O.2          1 08W264   0.0000
    21 C15         47.0820    38.1490     6.6810 C.2          1 08W264   0.0000
    22 O28         47.4320    38.8080     5.7140 O.2          1 08W264   0.0000
    23 N13         46.0920    38.6150     7.4680 N.pl3        1 08W264   0.0000
    24 C10         45.6330    37.8920     8.6060 C.ar         1 08W264   0.0000
    25 C11         44.6060    38.3950     9.4060 C.ar         1 08W264   0.0000
    26 C5          44.1410    37.6740    10.5280 C.ar         1 08W264   0.0000
    27 C2          43.0380    38.2480    11.4200 C.3          1 08W264   0.0000
    28 F1          42.0440    37.3620    11.5720 F            1 08W264   0.0000
    29 F3          43.5390    38.5540    12.6630 F            1 08W264   0.0000
    30 F4          42.5230    39.3810    10.8740 F            1 08W264   0.0000
    31 H1          40.7784    33.8197    12.4887 H            1 08W264   0.0000
    32 H2          39.2170    32.2500    13.0685 H            1 08W264   0.0000
    33 H3          40.3961    31.1214    13.0177 H            1 08W264   0.0000
    34 H4          40.0987    31.9297    14.4051 H            1 08W264   0.0000
    35 H5          45.9251    35.8731    13.2694 H            1 08W264   0.0000
    36 H6          42.7533    34.7287    11.0565 H            1 08W264   0.0000
    37 H7          46.1887    35.0626    10.2597 H            1 08W264   0.0000
    38 H8          48.7586    35.4509     6.2301 H            1 08W264   0.0000
    39 H9          51.6544    36.4103     8.3580 H            1 08W264   0.0000
    40 H10         50.0829    36.3014     8.7884 H            1 08W264   0.0000
    41 H11         50.7619    35.1314     7.8737 H            1 08W264   0.0000
    42 H12         45.6678    39.4931     7.2466 H            1 08W264   0.0000
    43 H13         44.1937    39.2780     9.1818 H            1 08W264   0.0000
@<TRIPOS>BOND
     1    1    2       2
     2    2    3      am
     3    2    5       1
     4    3    4       1
     5    5    6       1
     6    5    8       2
     7    6    7       2
     8    7    9       1
     9    8    9       1
    10    9   10       1
    11   10   11      ar
    12   10   26      ar
    13   11   12      ar
    14   12   13       1
    15   12   24      ar
    16   13   14       2
    17   13   15       1
    18   15   16       1
    19   15   21       1
    20   16   17       1
    21   17   18       2
    22   17   19       1
    23   17   20       2
    24   21   22       2
    25   21   23       1
    26   23   24       1
    27   24   25      ar
    28   25   26      ar
    29   26   27       1
    30   27   28       1
    31   27   29       1
    32   27   30       1
    33    3   31       1
    34    4   32       1
    35    4   33       1
    36    4   34       1
    37    7   35       1
    38    8   36       1
    39   11   37       1
    40   16   38       1
    41   19   39       1
    42   19   40       1
    43   19   41       1
    44   23   42       1
    45   25   43       1
@<TRIPOS>SUBSTRUCTURE
     1 08W264      1 GROUP             4 A     08W     0 **** 08W A 264
