@<TRIPOS>MOLECULE
1qhx_ATP_1_ligand
   43    45     1     0     0
SMALL
NO_CHARGES


@<TRIPOS>ATOM
     1 PG          13.0330    46.9940    32.9200 P.3          1 ATP501   0.0000
     2 O1G         11.6620    47.1720    33.4000 O.co2        1 ATP501   0.0000
     3 O2G         13.9980    46.8270    34.0240 O.co2        1 ATP501  -1.0000
     4 O3G         13.3410    48.1200    31.9450 O.co2        1 ATP501  -1.0000
     5 PB          12.8880    43.9150    32.5160 P.3          1 ATP501   0.0000
     6 O1B         14.0220    43.5280    33.3670 O.co2        1 ATP501   0.0000
     7 O2B         11.5510    43.6800    33.0540 O.co2        1 ATP501  -1.0000
     8 O3B         13.0830    45.5290    32.0740 O.3          1 ATP501   0.0000
     9 PA          11.9690    42.5760    30.2380 P.3          1 ATP501   0.0000
    10 O1A         11.3450    41.4050    30.9030 O.co2        1 ATP501   0.0000
    11 O2A         11.0630    43.6420    29.7060 O.co2        1 ATP501  -1.0000
    12 O3A         13.0330    43.2030    31.2080 O.3          1 ATP501   0.0000
    13 O5'         12.9590    42.0660    29.1280 O.3          1 ATP501   0.0000
    14 C5'         13.2370    42.7960    27.9000 C.3          1 ATP501   0.0000
    15 C4'         13.0480    42.0110    26.8140 C.3          1 ATP501   0.0000
    16 O4'         13.7320    40.7540    27.0360 O.3          1 ATP501   0.0000
    17 C3'         11.5960    41.6760    26.4840 C.3          1 ATP501   0.0000
    18 O3'         11.4620    41.9050    25.0580 O.3          1 ATP501   0.0000
    19 C2'         11.4870    40.2280    26.9010 C.3          1 ATP501   0.0000
    20 O2'         10.5210    39.5060    26.1590 O.3          1 ATP501   0.0000
    21 C1'         12.8950    39.6490    26.6680 C.3          1 ATP501   0.0000
    22 N9          13.2620    38.5000    27.5050 N.pl3        1 ATP501   0.0000
    23 C8          12.9450    38.3630    28.8380 C.2          1 ATP501   0.0000
    24 N7          13.4160    37.2900    29.4040 N.2          1 ATP501   0.0000
    25 C5          14.0870    36.6740    28.3640 C.ar         1 ATP501   0.0000
    26 C6          14.8350    35.4630    28.2960 C.ar         1 ATP501   0.0000
    27 N6          14.9750    34.7000    29.3590 N.pl3        1 ATP501   0.0000
    28 N1          15.3990    35.1010    27.1090 N.ar         1 ATP501   0.0000
    29 C2          15.2390    35.8990    26.0360 C.ar         1 ATP501   0.0000
    30 N3          14.5610    37.0720    25.9630 N.ar         1 ATP501   0.0000
    31 C4          14.0030    37.3990    27.1930 C.ar         1 ATP501   0.0000
    32 H5'1        14.1861    43.1105    27.9146 H            1 ATP501   0.0000
    33 H5'2        12.6252    43.5850    27.8433 H            1 ATP501   0.0000
    34 H4'         13.4588    42.4609    26.0210 H            1 ATP501   0.0000
    35 H3'         10.9645    42.2511    27.0040 H            1 ATP501   0.0000
    36 H5          10.5248    41.7019    24.7744 H            1 ATP501   0.0000
    37 H2'         11.2639    40.1782    27.8745 H            1 ATP501   0.0000
    38 H7          10.4947    38.5588    26.4787 H            1 ATP501   0.0000
    39 H1'         13.0215    39.4267    25.7013 H            1 ATP501   0.0000
    40 H9          12.3953    39.0360    29.3329 H            1 ATP501   0.0000
    41 H10         15.5021    33.8522    29.3000 H            1 ATP501   0.0000
    42 H11         14.5543    34.9680    30.2257 H            1 ATP501   0.0000
    43 H12         15.6728    35.5892    25.1899 H            1 ATP501   0.0000
@<TRIPOS>BOND
     1    1    2      ar
     2    1    3      ar
     3    1    4      ar
     4    1    8       1
     5    5    6      ar
     6    5    7      ar
     7    5    8       1
     8    5   12       1
     9    9   10      ar
    10    9   11      ar
    11    9   12       1
    12    9   13       1
    13   13   14       1
    14   14   15       1
    15   15   16       1
    16   15   17       1
    17   16   21       1
    18   17   18       1
    19   17   19       1
    20   19   20       1
    21   19   21       1
    22   21   22       1
    23   22   23       1
    24   22   31       1
    25   23   24       2
    26   24   25       1
    27   25   26      ar
    28   25   31      ar
    29   26   27       1
    30   26   28      ar
    31   28   29      ar
    32   29   30      ar
    33   30   31      ar
    34   29   43       1
    35   27   42       1
    36   27   41       1
    37   23   40       1
    38   14   32       1
    39   14   33       1
    40   15   34       1
    41   17   35       1
    42   18   36       1
    43   19   37       1
    44   20   38       1
    45   21   39       1
@<TRIPOS>SUBSTRUCTURE
     1 ATP501      1 GROUP             4 A     ATP     0 **** ATP A 501
