@<TRIPOS>MOLECULE
3he3_FAD_5_ligand
   84    89     1     0     0
SMALL
NO_CHARGES


@<TRIPOS>ATOM
     1 PA         -21.2820  -117.9510    94.5050 P.3          1 FAD450   0.0000
     2 O1A        -22.2640  -118.8860    93.8380 O.co2        1 FAD450   0.0000
     3 O2A        -21.4830  -116.5360    94.0160 O.co2        1 FAD450  -1.0000
     4 O5B        -19.7790  -118.4520    94.1960 O.3          1 FAD450   0.0000
     5 C5B        -19.4890  -119.8230    94.0320 C.3          1 FAD450   0.0000
     6 C4B        -18.5560  -120.0090    92.8430 C.3          1 FAD450   0.0000
     7 O4B        -17.8330  -121.2200    92.9780 O.3          1 FAD450   0.0000
     8 C3B        -19.3220  -120.0990    91.5290 C.3          1 FAD450   0.0000
     9 O3B        -18.8800  -119.0940    90.6460 O.3          1 FAD450   0.0000
    10 C2B        -18.9970  -121.4730    90.9720 C.3          1 FAD450   0.0000
    11 O2B        -18.7540  -121.4150    89.5890 O.3          1 FAD450   0.0000
    12 C1B        -17.7330  -121.8580    91.7170 C.3          1 FAD450   0.0000
    13 N9A        -17.6030  -123.3250    91.8380 N.pl3        1 FAD450   0.0000
    14 C8A        -18.5560  -124.2080    92.2800 C.2          1 FAD450   0.0000
    15 N7A        -18.0390  -125.4600    92.2330 N.2          1 FAD450   0.0000
    16 C5A        -16.7720  -125.3870    91.7660 C.ar         1 FAD450   0.0000
    17 C6A        -15.8050  -126.3530    91.5240 C.ar         1 FAD450   0.0000
    18 N6A        -16.0370  -127.6220    91.8500 N.pl3        1 FAD450   0.0000
    19 N1A        -14.5720  -125.9780    91.0340 N.ar         1 FAD450   0.0000
    20 C2A        -14.3060  -124.6470    90.7880 C.ar         1 FAD450   0.0000
    21 N3A        -15.2700  -123.6920    91.0320 N.ar         1 FAD450   0.0000
    22 C4A        -16.4850  -124.0540    91.5130 C.ar         1 FAD450   0.0000
    23 N1         -27.7540  -110.8610    96.9580 N.2          1 FAD450   0.0000
    24 C2         -28.0080  -109.5710    97.3750 C.2          1 FAD450   0.0000
    25 O2         -27.4000  -109.1140    98.3390 O.2          1 FAD450   0.0000
    26 N3         -28.9380  -108.7910    96.7140 N.pl3        1 FAD450   0.0000
    27 C4         -29.6250  -109.2930    95.6280 C.2          1 FAD450   0.0000
    28 O4         -30.4550  -108.5970    95.0370 O.2          1 FAD450   0.0000
    29 C4X        -29.3680  -110.5920    95.2070 C.2          1 FAD450   0.0000
    30 N5         -30.0460  -111.1060    94.1240 N.2          1 FAD450   0.0000
    31 C5X        -29.7950  -112.3940    93.7060 C.ar         1 FAD450   0.0000
    32 C6         -30.4880  -112.8960    92.6150 C.ar         1 FAD450   0.0000
    33 C7         -30.2480  -114.1900    92.1800 C.ar         1 FAD450   0.0000
    34 C7M        -31.0040  -114.7180    90.9980 C.3          1 FAD450   0.0000
    35 C8         -29.3130  -114.9820    92.8390 C.ar         1 FAD450   0.0000
    36 C8M        -29.0550  -116.3820    92.3640 C.3          1 FAD450   0.0000
    37 C9         -28.6190  -114.4790    93.9350 C.ar         1 FAD450   0.0000
    38 C9A        -28.8600  -113.1800    94.3720 C.ar         1 FAD450   0.0000
    39 N10        -28.1840  -112.6620    95.4630 N.pl3        1 FAD450   0.0000
    40 C10        -28.4330  -111.3730    95.8730 C.2          1 FAD450   0.0000
    41 C1'        -27.4500  -113.5640    96.4070 C.3          1 FAD450   0.0000
    42 C2'        -25.9660  -113.4630    96.0900 C.3          1 FAD450   0.0000
    43 O2'        -25.7670  -113.8970    94.7640 O.3          1 FAD450   0.0000
    44 C3'        -25.1460  -114.3140    97.0490 C.3          1 FAD450   0.0000
    45 O3'        -25.1630  -113.7050    98.3200 O.3          1 FAD450   0.0000
    46 C4'        -23.6980  -114.4410    96.5970 C.3          1 FAD450   0.0000
    47 O4'        -23.6370  -114.9540    95.2860 O.3          1 FAD450   0.0000
    48 C5'        -22.9160  -115.3690    97.5180 C.3          1 FAD450   0.0000
    49 O5'        -21.6880  -115.6560    96.8900 O.3          1 FAD450   0.0000
    50 P          -20.8860  -117.0180    97.1760 P.3          1 FAD450   0.0000
    51 O1P        -19.4120  -116.7720    96.9570 O.co2        1 FAD450   0.0000
    52 O2P        -21.1660  -117.5020    98.5780 O.co2        1 FAD450  -1.0000
    53 O3P        -21.4620  -118.0780    96.1040 O.3          1 FAD450   0.0000
    54 H5B1       -20.3382  -120.3258    93.8706 H            1 FAD450   0.0000
    55 H5B2       -19.0476  -120.1711    94.8591 H            1 FAD450   0.0000
    56 H4B        -17.9148  -119.2427    92.8014 H            1 FAD450   0.0000
    57 H3B        -20.3048  -120.0124    91.6918 H            1 FAD450   0.0000
    58 H5         -17.9034  -119.2134    90.4671 H            1 FAD450   0.0000
    59 H2B        -19.7344  -122.1178    91.1731 H            1 FAD450   0.0000
    60 H7         -17.7805  -121.2524    89.4281 H            1 FAD450   0.0000
    61 H1B        -16.9395  -121.4966    91.2274 H            1 FAD450   0.0000
    62 H8A        -19.4774  -123.9679    92.5855 H            1 FAD450   0.0000
    63 H6A1       -15.3407  -128.3183    91.6759 H            1 FAD450   0.0000
    64 H6A2       -16.9077  -127.8794    92.2691 H            1 FAD450   0.0000
    65 H2A        -13.4122  -124.3742    90.4320 H            1 FAD450   0.0000
    66 H13        -29.1140  -107.8570    97.0248 H            1 FAD450   0.0000
    67 H14        -31.1599  -112.3254    92.1427 H            1 FAD450   0.0000
    68 H7M1       -30.7185  -115.6583    90.8126 H            1 FAD450   0.0000
    69 H7M2       -31.9844  -114.6999    91.1942 H            1 FAD450   0.0000
    70 H7M3       -30.8134  -114.1480    90.1987 H            1 FAD450   0.0000
    71 H8M1       -28.3605  -116.8080    92.9438 H            1 FAD450   0.0000
    72 H8M2       -29.9015  -116.9121    92.4136 H            1 FAD450   0.0000
    73 H8M3       -28.7312  -116.3587    91.4182 H            1 FAD450   0.0000
    74 H21        -27.9481  -115.0501    94.4080 H            1 FAD450   0.0000
    75 H1'1       -27.7600  -114.5070    96.2862 H            1 FAD450   0.0000
    76 H1'2       -27.6164  -113.2767    97.3503 H            1 FAD450   0.0000
    77 H2'        -25.6777  -112.5088    96.1696 H            1 FAD450   0.0000
    78 H25        -24.8561  -114.3007    94.6785 H            1 FAD450   0.0000
    79 H3'        -25.5533  -115.2250    97.1135 H            1 FAD450   0.0000
    80 H27        -25.9398  -114.0521    98.8455 H            1 FAD450   0.0000
    81 H4'        -23.2730  -113.5359    96.6114 H            1 FAD450   0.0000
    82 H29        -22.7919  -115.4763    95.1714 H            1 FAD450   0.0000
    83 H5'1       -23.4292  -116.2144    97.6660 H            1 FAD450   0.0000
    84 H5'2       -22.7531  -114.9198    98.3964 H            1 FAD450   0.0000
@<TRIPOS>BOND
     1    1    2      ar
     2    1    3      ar
     3    1    4       1
     4    1   53       1
     5    4    5       1
     6    5    6       1
     7    6    7       1
     8    6    8       1
     9    7   12       1
    10    8    9       1
    11    8   10       1
    12   10   11       1
    13   10   12       1
    14   12   13       1
    15   13   14       1
    16   13   22       1
    17   14   15       2
    18   15   16       1
    19   16   17      ar
    20   16   22      ar
    21   17   18       1
    22   17   19      ar
    23   19   20      ar
    24   20   21      ar
    25   21   22      ar
    26   23   24       1
    27   23   40       2
    28   24   25       2
    29   24   26       1
    30   26   27       1
    31   27   28       2
    32   27   29       1
    33   29   30       2
    34   29   40       1
    35   30   31       1
    36   31   32      ar
    37   31   38      ar
    38   32   33      ar
    39   33   34       1
    40   33   35      ar
    41   35   36       1
    42   35   37      ar
    43   37   38      ar
    44   38   39       1
    45   39   40       1
    46   39   41       1
    47   41   42       1
    48   42   43       1
    49   42   44       1
    50   44   45       1
    51   44   46       1
    52   46   47       1
    53   46   48       1
    54   48   49       1
    55   49   50       1
    56   50   51      ar
    57   50   52      ar
    58   50   53       1
    59   48   84       1
    60    5   54       1
    61    5   55       1
    62    6   56       1
    63    8   57       1
    64    9   58       1
    65   10   59       1
    66   11   60       1
    67   12   61       1
    68   14   62       1
    69   18   63       1
    70   18   64       1
    71   20   65       1
    72   26   66       1
    73   32   67       1
    74   34   68       1
    75   34   69       1
    76   34   70       1
    77   36   71       1
    78   36   72       1
    79   36   73       1
    80   37   74       1
    81   41   75       1
    82   41   76       1
    83   42   77       1
    84   43   78       1
    85   44   79       1
    86   45   80       1
    87   46   81       1
    88   47   82       1
    89   48   83       1
@<TRIPOS>SUBSTRUCTURE
     1 FAD450      1 GROUP             4 E     FAD     0 **** FAD E 450
