@<TRIPOS>MOLECULE
3ryk_TYD_1_ligand
   38    39     1     0     0
SMALL
NO_CHARGES


@<TRIPOS>ATOM
     1 PA           6.9820    21.0840   -40.0020 P.3          1 TYD183   0.0000
     2 O1A          7.7660    22.2870   -40.4810 O.co2        1 TYD183   0.0000
     3 O2A          7.4680    20.3080   -38.7970 O.co2        1 TYD183  -1.0000
     4 O3A          6.8400    20.0940   -41.2610 O.3          1 TYD183   0.0000
     5 PB           7.5820    18.6660   -41.4120 P.3          1 TYD183   0.0000
     6 O1B          6.6950    17.7080   -40.6500 O.co2        1 TYD183   0.0000
     7 O2B          7.5470    18.4650   -42.9150 O.co2        1 TYD183  -1.0000
     8 O3B          8.9740    18.8760   -40.8400 O.co2        1 TYD183  -1.0000
     9 O5'          5.4730    21.5740   -39.6970 O.3          1 TYD183   0.0000
    10 C5'          4.3090    20.8180   -40.0430 C.3          1 TYD183   0.0000
    11 C4'          3.2060    21.7680   -40.4850 C.3          1 TYD183   0.0000
    12 O4'          2.8240    22.5620   -39.3650 O.3          1 TYD183   0.0000
    13 C3'          3.6470    22.7300   -41.5790 C.3          1 TYD183   0.0000
    14 O3'          2.8240    22.5470   -42.7380 O.3          1 TYD183   0.0000
    15 C2'          3.4890    24.1320   -41.0150 C.3          1 TYD183   0.0000
    16 C1'          2.6970    23.9400   -39.7270 C.3          1 TYD183   0.0000
    17 N1           3.1540    24.7700   -38.5980 N.pl3        1 TYD183   0.0000
    18 C2           2.3000    25.6300   -37.9950 C.2          1 TYD183   0.0000
    19 O2           1.0080    25.7410   -38.4170 O.2          1 TYD183   0.0000
    20 N3           2.6830    26.4040   -36.9530 N.pl3        1 TYD183   0.0000
    21 C4           3.9400    26.3420   -36.4710 C.2          1 TYD183   0.0000
    22 O4           4.2940    27.1200   -35.4110 O.2          1 TYD183   0.0000
    23 C5           4.8920    25.4060   -37.1180 C.2          1 TYD183   0.0000
    24 C5M          6.3200    25.2540   -36.6720 C.3          1 TYD183   0.0000
    25 C6           4.4280    24.6490   -38.1790 C.2          1 TYD183   0.0000
    26 H5'1         4.0013    20.2957   -39.2477 H            1 TYD183   0.0000
    27 H5'2         4.5282    20.1901   -40.7897 H            1 TYD183   0.0000
    28 H4'          2.4188    21.2397   -40.8031 H            1 TYD183   0.0000
    29 H3'          4.6050    22.5634   -41.8125 H            1 TYD183   0.0000
    30 H5           3.1144    23.1793   -43.4562 H            1 TYD183   0.0000
    31 H2'1         2.9879    24.7154   -41.6541 H            1 TYD183   0.0000
    32 H2'2         4.3824    24.5383   -40.8231 H            1 TYD183   0.0000
    33 H1'          1.7338    24.1400   -39.9066 H            1 TYD183   0.0000
    34 H9           2.0247    27.0301   -36.5352 H            1 TYD183   0.0000
    35 H5M1         6.7773    24.5733   -37.2443 H            1 TYD183   0.0000
    36 H5M2         6.7911    26.1319   -36.7574 H            1 TYD183   0.0000
    37 H5M3         6.3412    24.9557   -35.7178 H            1 TYD183   0.0000
    38 H13          5.0429    24.0076   -38.6379 H            1 TYD183   0.0000
@<TRIPOS>BOND
     1    1    2      ar
     2    1    3      ar
     3    1    4       1
     4    1    9       1
     5    4    5       1
     6    5    6      ar
     7    5    7      ar
     8    5    8      ar
     9    9   10       1
    10   10   11       1
    11   11   12       1
    12   11   13       1
    13   12   16       1
    14   13   14       1
    15   13   15       1
    16   15   16       1
    17   16   17       1
    18   17   18       1
    19   17   25       1
    20   18   19       2
    21   18   20       1
    22   20   21       1
    23   21   22       2
    24   21   23       1
    25   23   24       1
    26   23   25       2
    27   25   38       1
    28   24   37       1
    29   24   36       1
    30   10   26       1
    31   10   27       1
    32   11   28       1
    33   13   29       1
    34   14   30       1
    35   15   31       1
    36   15   32       1
    37   16   33       1
    38   20   34       1
    39   24   35       1
@<TRIPOS>SUBSTRUCTURE
     1 TYD183      1 GROUP             4 A     TYD     0 **** TYD A 183
