@<TRIPOS>MOLECULE
1wzi_NDP_2_ligand
   63    65     1     0     0
SMALL
NO_CHARGES


@<TRIPOS>ATOM
     1 PA          -9.2460    16.9150    32.7020 P.3          1 NDP2334   0.0000
     2 O1A         -7.9880    16.6150    32.0460 O.co2        1 NDP2334   0.0000
     3 O2A        -10.3590    17.2360    31.7630 O.co2        1 NDP2334  -1.0000
     4 O5B         -9.7020    15.7410    33.5860 O.3          1 NDP2334   0.0000
     5 C5B        -11.1770    15.3530    33.6890 C.3          1 NDP2334   0.0000
     6 C4B        -11.1430    13.9140    34.2600 C.3          1 NDP2334   0.0000
     7 O4B        -12.4770    13.3210    34.8310 O.3          1 NDP2334   0.0000
     8 C3B        -10.7440    12.8640    33.1170 C.3          1 NDP2334   0.0000
     9 O3B         -9.2780    12.8710    33.0210 O.3          1 NDP2334   0.0000
    10 C2B        -11.3760    11.5980    33.7360 C.3          1 NDP2334   0.0000
    11 O2B        -10.5950    11.2150    34.9480 O.3          1 NDP2334   0.0000
    12 C1B        -12.7510    12.1150    34.1130 C.3          1 NDP2334   0.0000
    13 N9A        -13.7120    12.5050    33.0420 N.4          1 NDP2334   1.0000
    14 O3          -9.0180    18.0150    33.7900 O.3          1 NDP2334   0.0000
    15 PN          -8.1500    18.7440    34.9040 P.3          1 NDP2334   0.0000
    16 O1N         -7.6370    20.0160    34.2300 O.co2        1 NDP2334   0.0000
    17 O2N         -7.3100    17.8960    35.4720 O.co2        1 NDP2334  -1.0000
    18 O5D         -9.3830    19.2250    35.9060 O.3          1 NDP2334   0.0000
    19 C5D        -10.4780    19.9420    35.3960 C.3          1 NDP2334   0.0000
    20 C4D        -11.3560    20.0160    36.6760 C.3          1 NDP2334   0.0000
    21 O4D        -10.7500    20.6870    37.8230 O.3          1 NDP2334   0.0000
    22 C3D        -12.5850    20.8010    36.2140 C.3          1 NDP2334   0.0000
    23 O3D        -13.6480    20.2470    36.9820 O.3          1 NDP2334   0.0000
    24 C2D        -12.1310    22.2100    36.5570 C.3          1 NDP2334   0.0000
    25 O2D        -13.2330    23.0840    36.5000 O.3          1 NDP2334   0.0000
    26 C1D        -11.5100    22.0010    37.9770 C.3          1 NDP2334   0.0000
    27 N1N        -10.4820    22.9620    38.3610 N.ar         1 NDP2334   1.0000
    28 C2N        -10.6840    23.5190    39.6580 C.ar         1 NDP2334   0.0000
    29 C3N         -9.8630    24.4300    40.2030 C.ar         1 NDP2334   0.0000
    30 C7N        -10.0510    25.0460    41.5890 C.2          1 NDP2334   0.0000
    31 O7N         -9.2810    25.8630    42.0200 O.2          1 NDP2334   0.0000
    32 N7N        -11.1810    24.5530    42.2510 N.am         1 NDP2334   0.0000
    33 C4N         -8.5310    25.0150    39.4460 C.ar         1 NDP2334   0.0000
    34 C5N         -8.4630    24.2920    38.0470 C.ar         1 NDP2334   0.0000
    35 C6N         -9.3380    23.3870    37.5770 C.ar         1 NDP2334   0.0000
    36 P2B         -9.9510     9.8040    34.9170 P.3          1 NDP2334   0.0000
    37 O1X         -9.1060     9.5630    36.1670 O.co2        1 NDP2334   0.0000
    38 O2X        -11.0880     8.9210    34.7720 O.co2        1 NDP2334  -1.0000
    39 O3X         -8.9660     9.8260    33.7460 O.co2        1 NDP2334  -1.0000
    40 H5B1       -11.6129    15.3688    32.7892 H            1 NDP2334   0.0000
    41 H5B2       -11.6650    15.9697    34.3067 H            1 NDP2334   0.0000
    42 H4B        -10.4486    13.8765    34.9786 H            1 NDP2334   0.0000
    43 H3B        -11.1695    13.0956    32.2422 H            1 NDP2334   0.0000
    44 H5          -8.9268    11.9553    33.2162 H            1 NDP2334   0.0000
    45 H2B        -11.4290    10.8486    33.0760 H            1 NDP2334   0.0000
    46 H1B        -13.1914    11.4599    34.7270 H            1 NDP2334   0.0000
    47 H9A1       -13.9481    11.7006    32.4969 H            1 NDP2334   0.0000
    48 H9A2       -14.5402    12.8806    33.4579 H            1 NDP2334   0.0000
    49 H5D1       -10.9363    19.4474    34.6575 H            1 NDP2334   0.0000
    50 H5D2       -10.2115    20.8503    35.0736 H            1 NDP2334   0.0000
    51 H4D        -11.6334    19.0925    36.9411 H            1 NDP2334   0.0000
    52 H3D        -12.7440    20.6933    35.2326 H            1 NDP2334   0.0000
    53 H14        -14.5006    20.3065    36.4627 H            1 NDP2334   0.0000
    54 H2D        -11.4245    22.5077    35.9150 H            1 NDP2334   0.0000
    55 H16        -13.6196    23.0732    35.5778 H            1 NDP2334   0.0000
    56 H1D        -12.2204    21.9298    38.6772 H            1 NDP2334   0.0000
    57 H2N        -11.4763    23.2159    40.1875 H            1 NDP2334   0.0000
    58 H7N1       -11.4073    24.8831    43.1674 H            1 NDP2334   0.0000
    59 H7N2       -11.7622    23.8706    41.8077 H            1 NDP2334   0.0000
    60 H4N         -7.8896    25.6950    39.8012 H            1 NDP2334   0.0000
    61 H5N         -7.6950    24.5296    37.4522 H            1 NDP2334   0.0000
    62 H6N         -9.1974    22.9979    36.6666 H            1 NDP2334   0.0000
    63 H9A3       -13.2923    13.1954    32.4528 H            1 NDP2334   0.0000
@<TRIPOS>BOND
     1    1    2      ar
     2    1    3      ar
     3    1    4       1
     4    1   14       1
     5    4    5       1
     6    5    6       1
     7    6    7       1
     8    6    8       1
     9    7   12       1
    10    8    9       1
    11    8   10       1
    12   10   11       1
    13   10   12       1
    14   11   36       1
    15   12   13       1
    16   14   15       1
    17   15   16      ar
    18   15   17      ar
    19   15   18       1
    20   18   19       1
    21   19   20       1
    22   20   21       1
    23   20   22       1
    24   21   26       1
    25   22   23       1
    26   22   24       1
    27   24   25       1
    28   24   26       1
    29   26   27       1
    30   27   28      ar
    31   27   35      ar
    32   28   29      ar
    33   29   30       1
    34   29   33      ar
    35   30   31       2
    36   30   32      am
    37   33   34      ar
    38   34   35      ar
    39   36   37      ar
    40   36   38      ar
    41   36   39      ar
    42   35   62       1
    43    5   40       1
    44    5   41       1
    45    6   42       1
    46    8   43       1
    47    9   44       1
    48   10   45       1
    49   12   46       1
    50   13   47       1
    51   13   48       1
    52   13   63       1
    53   19   49       1
    54   19   50       1
    55   20   51       1
    56   22   52       1
    57   23   53       1
    58   24   54       1
    59   25   55       1
    60   26   56       1
    61   28   57       1
    62   32   58       1
    63   32   59       1
    64   33   60       1
    65   34   61       1
@<TRIPOS>SUBSTRUCTURE
     1 NDP2334     1 GROUP             4 B     NDP     0 **** NDP B2334
