@<TRIPOS>MOLECULE
2j6l_NAI_4_ligand
   71    75     1     0     0
SMALL
NO_CHARGES


@<TRIPOS>ATOM
     1 PA          36.9560     8.8090    59.9070 P.3          1 NAI1501   0.0000
     2 O1A         37.8020     8.7150    58.6560 O.co2        1 NAI1501   0.0000
     3 O2A         36.9480     7.5560    60.7380 O.co2        1 NAI1501  -1.0000
     4 O5B         35.4910     9.0510    59.4960 O.3          1 NAI1501   0.0000
     5 C5B         35.1390    10.2930    58.8670 C.3          1 NAI1501   0.0000
     6 C4B         33.7940    10.1600    58.1610 C.3          1 NAI1501   0.0000
     7 O4B         33.8200     9.2060    57.1000 O.3          1 NAI1501   0.0000
     8 C3B         32.6380     9.7740    59.0560 C.3          1 NAI1501   0.0000
     9 O3B         31.4190    10.3990    58.6630 O.3          1 NAI1501   0.0000
    10 C2B         32.5200     8.2810    58.7970 C.3          1 NAI1501   0.0000
    11 O2B         31.2590     7.7300    59.1590 O.3          1 NAI1501   0.0000
    12 C1B         32.7790     8.2160    57.2920 C.3          1 NAI1501   0.0000
    13 N9A         33.2250     6.8920    56.8200 N.pl3        1 NAI1501   0.0000
    14 C8A         33.7970     5.8800    57.5370 C.2          1 NAI1501   0.0000
    15 N7A         34.1170     4.8740    56.7080 N.2          1 NAI1501   0.0000
    16 C5A         33.7620     5.2320    55.4660 C.ar         1 NAI1501   0.0000
    17 C6A         33.8580     4.6560    54.1200 C.ar         1 NAI1501   0.0000
    18 N6A         34.4130     3.3830    54.0320 N.pl3        1 NAI1501   0.0000
    19 N1A         33.4130     5.3570    53.0520 N.ar         1 NAI1501   0.0000
    20 C2A         32.8680     6.5860    53.2080 C.ar         1 NAI1501   0.0000
    21 N3A         32.7820     7.1910    54.4270 N.ar         1 NAI1501   0.0000
    22 C4A         33.1910     6.5820    55.5410 C.ar         1 NAI1501   0.0000
    23 O3          37.4330    10.0990    60.6940 O.3          1 NAI1501   0.0000
    24 PN          37.0340    10.7460    62.0680 P.3          1 NAI1501   0.0000
    25 O1N         35.4970    10.9860    62.2140 O.co2        1 NAI1501   0.0000
    26 O2N         37.6230     9.9470    63.1870 O.co2        1 NAI1501  -1.0000
    27 O5D         37.7190    12.1190    62.1260 O.3          1 NAI1501   0.0000
    28 C5D         39.1260    12.2690    62.4420 C.3          1 NAI1501   0.0000
    29 C4D         39.9990    12.3050    61.2050 C.3          1 NAI1501   0.0000
    30 O4D         39.5150    13.3580    60.3750 O.3          1 NAI1501   0.0000
    31 C3D         41.4590    12.6960    61.4060 C.3          1 NAI1501   0.0000
    32 O3D         42.3340    12.0350    60.5110 O.3          1 NAI1501   0.0000
    33 C2D         41.4650    14.2120    61.1750 C.3          1 NAI1501   0.0000
    34 O2D         42.7450    14.8400    60.9670 O.3          1 NAI1501   0.0000
    35 C1D         40.4980    14.3150    60.0050 C.3          1 NAI1501   0.0000
    36 N1N         40.0160    15.6860    59.8460 N.pl3        1 NAI1501   0.0000
    37 C2N         40.4510    16.4370    58.8210 C.2          1 NAI1501   0.0000
    38 C3N         40.0120    17.7650    58.7310 C.2          1 NAI1501   0.0000
    39 C7N         40.4590    18.6520    57.6040 C.2          1 NAI1501   0.0000
    40 O7N         39.8230    19.6930    57.3790 O.2          1 NAI1501   0.0000
    41 N7N         41.5350    18.2940    56.8550 N.am         1 NAI1501   0.0000
    42 C4N         39.1540    18.2890    59.7230 C.3          1 NAI1501   0.0000
    43 C5N         38.7050    17.4960    60.7420 C.2          1 NAI1501   0.0000
    44 C6N         39.1710    16.1810    60.7880 C.2          1 NAI1501   0.0000
    45 H5B1        35.8413    10.5355    58.1977 H            1 NAI1501   0.0000
    46 H5B2        35.0786    11.0100    59.5614 H            1 NAI1501   0.0000
    47 H4B         33.5775    11.0496    57.7588 H            1 NAI1501   0.0000
    48 H3B         32.8464     9.9593    60.0163 H            1 NAI1501   0.0000
    49 H5          31.5252    11.3925    58.7048 H            1 NAI1501   0.0000
    50 H2B         33.2484     7.7982    59.2832 H            1 NAI1501   0.0000
    51 H7          31.3785     6.7757    59.4328 H            1 NAI1501   0.0000
    52 H1B         31.9557     8.4914    56.7957 H            1 NAI1501   0.0000
    53 H8A         33.9530     5.8874    58.5247 H            1 NAI1501   0.0000
    54 H6A1        34.5048     2.9381    53.1412 H            1 NAI1501   0.0000
    55 H6A2        34.7200     2.9131    54.8596 H            1 NAI1501   0.0000
    56 H2A         32.5172     7.0656    52.4037 H            1 NAI1501   0.0000
    57 H5D1        39.4102    11.4985    63.0125 H            1 NAI1501   0.0000
    58 H5D2        39.2516    13.1224    62.9478 H            1 NAI1501   0.0000
    59 H4D         39.9417    11.4325    60.7198 H            1 NAI1501   0.0000
    60 H3D         41.7319    12.4995    62.3478 H            1 NAI1501   0.0000
    61 H17         43.2271    11.9160    60.9448 H            1 NAI1501   0.0000
    62 H2D         41.0355    14.6451    61.9674 H            1 NAI1501   0.0000
    63 H19         43.4501    14.3313    61.4610 H            1 NAI1501   0.0000
    64 H1D         40.9543    14.0201    59.1654 H            1 NAI1501   0.0000
    65 H2N         41.0742    16.0572    58.1373 H            1 NAI1501   0.0000
    66 H7N1        41.8381    18.8797    56.1033 H            1 NAI1501   0.0000
    67 H7N2        42.0237    17.4449    57.0556 H            1 NAI1501   0.0000
    68 H4N1        38.3433    18.6319    59.2484 H            1 NAI1501   0.0000
    69 H4N2        39.6399    19.0530    60.1475 H            1 NAI1501   0.0000
    70 H5N         38.0669    17.8448    61.4284 H            1 NAI1501   0.0000
    71 H6N         38.8746    15.5864    61.5354 H            1 NAI1501   0.0000
@<TRIPOS>BOND
     1    1    2      ar
     2    1    3      ar
     3    1    4       1
     4    1   23       1
     5    4    5       1
     6    5    6       1
     7    6    7       1
     8    6    8       1
     9    7   12       1
    10    8    9       1
    11    8   10       1
    12   10   11       1
    13   10   12       1
    14   12   13       1
    15   13   14       1
    16   13   22       1
    17   14   15       2
    18   15   16       1
    19   16   17      ar
    20   16   22      ar
    21   17   18       1
    22   17   19      ar
    23   19   20      ar
    24   20   21      ar
    25   21   22      ar
    26   23   24       1
    27   24   25      ar
    28   24   26      ar
    29   24   27       1
    30   27   28       1
    31   28   29       1
    32   29   30       1
    33   29   31       1
    34   30   35       1
    35   31   32       1
    36   31   33       1
    37   33   34       1
    38   33   35       1
    39   35   36       1
    40   36   37       1
    41   36   44       1
    42   37   38       2
    43   38   39       1
    44   38   42       1
    45   39   40       2
    46   39   41      am
    47   42   43       1
    48   43   44       2
    49   44   71       1
    50    5   45       1
    51    5   46       1
    52    6   47       1
    53    8   48       1
    54    9   49       1
    55   10   50       1
    56   11   51       1
    57   12   52       1
    58   14   53       1
    59   18   54       1
    60   18   55       1
    61   20   56       1
    62   43   70       1
    63   28   57       1
    64   28   58       1
    65   29   59       1
    66   31   60       1
    67   32   61       1
    68   33   62       1
    69   34   63       1
    70   35   64       1
    71   37   65       1
    72   41   66       1
    73   41   67       1
    74   42   68       1
    75   42   69       1
@<TRIPOS>SUBSTRUCTURE
     1 NAI1501     1 GROUP             4 D     NAI     0 **** NAI D1501
