@<TRIPOS>MOLECULE
4rvo_ADP_2_ligand
   39    41     1     0     0
SMALL
NO_CHARGES


@<TRIPOS>ATOM
     1 PB           1.5610    42.5730    53.2080 P.3          1 ADP502   0.0000
     2 O1B          1.5380    42.8340    51.7090 O.co2        1 ADP502   0.0000
     3 O2B          1.7840    43.9170    53.9740 O.co2        1 ADP502  -1.0000
     4 O3B          2.6990    41.6070    53.5370 O.co2        1 ADP502  -1.0000
     5 PA          -0.3070    40.4400    54.0140 P.3          1 ADP502   0.0000
     6 O1A          0.2780    39.4620    52.9880 O.co2        1 ADP502   0.0000
     7 O2A         -1.7890    40.3620    53.9820 O.co2        1 ADP502  -1.0000
     8 O3A          0.1580    41.9330    53.6560 O.3          1 ADP502   0.0000
     9 O5'          0.2160    40.0630    55.4590 O.3          1 ADP502   0.0000
    10 C5'         -0.4940    40.3920    56.6680 C.3          1 ADP502   0.0000
    11 C4'          0.1820    39.7270    57.8360 C.3          1 ADP502   0.0000
    12 O4'          1.4650    40.3450    58.0720 O.3          1 ADP502   0.0000
    13 C3'         -0.5510    39.8380    59.1580 C.3          1 ADP502   0.0000
    14 O3'         -1.5710    38.8510    59.2720 O.3          1 ADP502   0.0000
    15 C2'          0.5730    39.6400    60.1660 C.3          1 ADP502   0.0000
    16 O2'          0.8840    38.2670    60.3630 O.3          1 ADP502   0.0000
    17 C1'          1.7440    40.3540    59.4700 C.3          1 ADP502   0.0000
    18 N9           1.9410    41.7410    59.9040 N.pl3        1 ADP502   0.0000
    19 C8           1.4140    42.8720    59.3340 C.2          1 ADP502   0.0000
    20 N7           1.7000    43.9780    59.9790 N.2          1 ADP502   0.0000
    21 C5           2.4680    43.5440    61.0510 C.ar         1 ADP502   0.0000
    22 C6           3.0920    44.2330    62.1140 C.ar         1 ADP502   0.0000
    23 N6           2.9520    45.5430    62.3330 N.pl3        1 ADP502   0.0000
    24 N1           3.8240    43.5040    62.9920 N.ar         1 ADP502   0.0000
    25 C2           3.8910    42.1750    62.8270 C.ar         1 ADP502   0.0000
    26 N3           3.3260    41.4180    61.8790 N.ar         1 ADP502   0.0000
    27 C4           2.6300    42.1690    61.0130 C.ar         1 ADP502   0.0000
    28 H5'1        -1.4380    40.0691    56.5998 H            1 ADP502   0.0000
    29 H5'2        -0.4895    41.3834    56.7991 H            1 ADP502   0.0000
    30 H4'          0.3218    38.7601    57.6226 H            1 ADP502   0.0000
    31 H3'         -0.9445    40.7520    59.2571 H            1 ADP502   0.0000
    32 H5          -1.6952    38.6096    60.2344 H            1 ADP502   0.0000
    33 H2'          0.3529    40.0828    61.0352 H            1 ADP502   0.0000
    34 H7           0.3239    37.9017    61.1065 H            1 ADP502   0.0000
    35 H1'          2.5845    39.8386    59.6371 H            1 ADP502   0.0000
    36 H9           0.8610    42.8549    58.5010 H            1 ADP502   0.0000
    37 H10          3.4206    45.9739    63.1042 H            1 ADP502   0.0000
    38 H11          2.3786    46.0930    61.7258 H            1 ADP502   0.0000
    39 H12          4.4374    41.6826    63.5044 H            1 ADP502   0.0000
@<TRIPOS>BOND
     1    1    2      ar
     2    1    3      ar
     3    1    4      ar
     4    1    8       1
     5    5    6      ar
     6    5    7      ar
     7    5    8       1
     8    5    9       1
     9    9   10       1
    10   10   11       1
    11   11   12       1
    12   11   13       1
    13   12   17       1
    14   13   14       1
    15   13   15       1
    16   15   16       1
    17   15   17       1
    18   17   18       1
    19   18   19       1
    20   18   27       1
    21   19   20       2
    22   20   21       1
    23   21   22      ar
    24   21   27      ar
    25   22   23       1
    26   22   24      ar
    27   24   25      ar
    28   25   26      ar
    29   26   27      ar
    30   25   39       1
    31   23   38       1
    32   23   37       1
    33   10   28       1
    34   10   29       1
    35   11   30       1
    36   13   31       1
    37   14   32       1
    38   15   33       1
    39   16   34       1
    40   17   35       1
    41   19   36       1
@<TRIPOS>SUBSTRUCTURE
     1 ADP502      1 GROUP             4 B     ADP     0 **** ADP B 502
