@<TRIPOS>MOLECULE
3clr_FAD_1_ligand
   84    89     1     0     0
SMALL
NO_CHARGES


@<TRIPOS>ATOM
     1 PA          71.6600    54.2720   -14.1990 P.3          1 FAD1319   0.0000
     2 O1A         72.4200    53.1060   -14.7430 O.co2        1 FAD1319   0.0000
     3 O2A         71.1430    54.1230   -12.8010 O.co2        1 FAD1319  -1.0000
     4 O5B         70.3830    54.6180   -15.1340 O.3          1 FAD1319   0.0000
     5 C5B         70.4200    54.5160   -16.5290 C.3          1 FAD1319   0.0000
     6 C4B         68.9830    54.5840   -17.0120 C.3          1 FAD1319   0.0000
     7 O4B         68.9550    54.5950   -18.4210 O.3          1 FAD1319   0.0000
     8 C3B         68.1600    53.3750   -16.5680 C.3          1 FAD1319   0.0000
     9 O3B         67.0400    53.7260   -15.7520 O.3          1 FAD1319   0.0000
    10 C2B         67.7050    52.7150   -17.8620 C.3          1 FAD1319   0.0000
    11 O2B         66.3870    52.1920   -17.8320 O.3          1 FAD1319   0.0000
    12 C1B         67.8360    53.8420   -18.8530 C.3          1 FAD1319   0.0000
    13 N9A         68.0450    53.4500   -20.2560 N.pl3        1 FAD1319   0.0000
    14 C8A         68.9760    52.6040   -20.7970 C.2          1 FAD1319   0.0000
    15 N7A         68.8270    52.5890   -22.1370 N.2          1 FAD1319   0.0000
    16 C5A         67.8360    53.4650   -22.4740 C.ar         1 FAD1319   0.0000
    17 C6A         67.2500    53.8570   -23.6780 C.ar         1 FAD1319   0.0000
    18 N6A         67.6910    53.4270   -24.8800 N.pl3        1 FAD1319   0.0000
    19 N1A         66.1910    54.7560   -23.6380 N.ar         1 FAD1319   0.0000
    20 C2A         65.7270    55.2760   -22.4680 C.ar         1 FAD1319   0.0000
    21 N3A         66.2950    54.8710   -21.2850 N.ar         1 FAD1319   0.0000
    22 C4A         67.3530    54.0170   -21.2880 C.ar         1 FAD1319   0.0000
    23 N1          74.6890    60.5590    -9.0560 N.2          1 FAD1319   0.0000
    24 C2          74.4280    61.6960    -9.7660 C.2          1 FAD1319   0.0000
    25 O2          73.8740    61.6080   -10.8450 O.2          1 FAD1319   0.0000
    26 N3          74.8690    62.8930    -9.2980 N.pl3        1 FAD1319   0.0000
    27 C4          75.5340    63.0030    -8.1120 C.2          1 FAD1319   0.0000
    28 O4          75.8570    64.1380    -7.7310 O.2          1 FAD1319   0.0000
    29 C4X         75.7900    61.8510    -7.3580 C.2          1 FAD1319   0.0000
    30 N5          76.4710    61.9030    -6.1530 N.2          1 FAD1319   0.0000
    31 C5X         76.6440    60.7170    -5.4340 C.ar         1 FAD1319   0.0000
    32 C6          77.2930    60.7470    -4.2060 C.ar         1 FAD1319   0.0000
    33 C7          77.4590    59.5790    -3.4610 C.ar         1 FAD1319   0.0000
    34 C7M         77.8280    59.7190    -2.0050 C.3          1 FAD1319   0.0000
    35 C8          77.0180    58.3500    -3.9810 C.ar         1 FAD1319   0.0000
    36 C8M         77.0520    57.0990    -3.1550 C.3          1 FAD1319   0.0000
    37 C9          76.3760    58.3120    -5.1960 C.ar         1 FAD1319   0.0000
    38 C9A         76.2090    59.4900    -5.9550 C.ar         1 FAD1319   0.0000
    39 N10         75.5930    59.4350    -7.1940 N.pl3        1 FAD1319   0.0000
    40 C10         75.3430    60.6210    -7.8520 C.2          1 FAD1319   0.0000
    41 C1'         75.7090    58.2180    -8.0800 C.3          1 FAD1319   0.0000
    42 C2'         74.4010    57.4320    -8.0640 C.3          1 FAD1319   0.0000
    43 O2'         74.3970    56.4920    -6.9840 O.3          1 FAD1319   0.0000
    44 C3'         74.1020    56.6510    -9.3540 C.3          1 FAD1319   0.0000
    45 O3'         75.2040    55.8570    -9.6620 O.3          1 FAD1319   0.0000
    46 C4'         73.8230    57.5250   -10.5680 C.3          1 FAD1319   0.0000
    47 O4'         73.0070    58.6330   -10.2070 O.3          1 FAD1319   0.0000
    48 C5'         73.2210    56.6940   -11.6770 C.3          1 FAD1319   0.0000
    49 O5'         73.2410    57.4730   -12.8590 O.3          1 FAD1319   0.0000
    50 P           72.2820    57.1060   -14.0620 P.3          1 FAD1319   0.0000
    51 O1P         70.8470    57.3060   -13.6400 O.co2        1 FAD1319   0.0000
    52 O2P         72.7170    57.9530   -15.2460 O.co2        1 FAD1319  -1.0000
    53 O3P         72.5770    55.5570   -14.4430 O.3          1 FAD1319   0.0000
    54 H5B1        70.8334    53.6466   -16.7997 H            1 FAD1319   0.0000
    55 H5B2        70.9492    55.2714   -16.9155 H            1 FAD1319   0.0000
    56 H4B         68.5567    55.4198   -16.6659 H            1 FAD1319   0.0000
    57 H3B         68.7488    52.7424   -16.0649 H            1 FAD1319   0.0000
    58 H5          66.8425    52.9786   -15.1176 H            1 FAD1319   0.0000
    59 H2B         68.3449    51.9856   -18.1041 H            1 FAD1319   0.0000
    60 H7          65.7397    52.9302   -17.6421 H            1 FAD1319   0.0000
    61 H1B         67.0197    54.4169   -18.7971 H            1 FAD1319   0.0000
    62 H8A         69.6559    52.0821   -20.2819 H            1 FAD1319   0.0000
    63 H6A1        67.2396    53.7348   -25.7175 H            1 FAD1319   0.0000
    64 H6A2        68.4690    52.8009   -24.9324 H            1 FAD1319   0.0000
    65 H2A         64.9827    55.9438   -22.4702 H            1 FAD1319   0.0000
    66 H13         74.7012    63.7173    -9.8387 H            1 FAD1319   0.0000
    67 H14         77.6445    61.6139    -3.8527 H            1 FAD1319   0.0000
    68 H7M1        77.9147    58.8113    -1.5943 H            1 FAD1319   0.0000
    69 H7M2        78.6987    60.2047    -1.9270 H            1 FAD1319   0.0000
    70 H7M3        77.1153    60.2338    -1.5285 H            1 FAD1319   0.0000
    71 H8M1        76.7006    56.3338    -3.6944 H            1 FAD1319   0.0000
    72 H8M2        77.9938    56.9074    -2.8788 H            1 FAD1319   0.0000
    73 H8M3        76.4843    57.2215    -2.3410 H            1 FAD1319   0.0000
    74 H21         76.0247    57.4431    -5.5446 H            1 FAD1319   0.0000
    75 H1'1        76.4495    57.6349    -7.7459 H            1 FAD1319   0.0000
    76 H1'2        75.9094    58.5079    -9.0158 H            1 FAD1319   0.0000
    77 H2'         73.6533    58.0788    -7.9138 H            1 FAD1319   0.0000
    78 H25         74.2979    55.5660    -7.3484 H            1 FAD1319   0.0000
    79 H3'         73.3123    56.0583    -9.1957 H            1 FAD1319   0.0000
    80 H27         75.6724    55.5951    -8.8182 H            1 FAD1319   0.0000
    81 H4'         74.6978    57.8830   -10.8945 H            1 FAD1319   0.0000
    82 H29         73.5879    59.4000    -9.9346 H            1 FAD1319   0.0000
    83 H5'1        72.2792    56.4494   -11.4463 H            1 FAD1319   0.0000
    84 H5'2        73.7589    55.8613   -11.8089 H            1 FAD1319   0.0000
@<TRIPOS>BOND
     1    1    2      ar
     2    1    3      ar
     3    1    4       1
     4    1   53       1
     5    4    5       1
     6    5    6       1
     7    6    7       1
     8    6    8       1
     9    7   12       1
    10    8    9       1
    11    8   10       1
    12   10   11       1
    13   10   12       1
    14   12   13       1
    15   13   14       1
    16   13   22       1
    17   14   15       2
    18   15   16       1
    19   16   17      ar
    20   16   22      ar
    21   17   18       1
    22   17   19      ar
    23   19   20      ar
    24   20   21      ar
    25   21   22      ar
    26   23   24       1
    27   23   40       2
    28   24   25       2
    29   24   26       1
    30   26   27       1
    31   27   28       2
    32   27   29       1
    33   29   30       2
    34   29   40       1
    35   30   31       1
    36   31   32      ar
    37   31   38      ar
    38   32   33      ar
    39   33   34       1
    40   33   35      ar
    41   35   36       1
    42   35   37      ar
    43   37   38      ar
    44   38   39       1
    45   39   40       1
    46   39   41       1
    47   41   42       1
    48   42   43       1
    49   42   44       1
    50   44   45       1
    51   44   46       1
    52   46   47       1
    53   46   48       1
    54   48   49       1
    55   49   50       1
    56   50   51      ar
    57   50   52      ar
    58   50   53       1
    59   48   84       1
    60    5   54       1
    61    5   55       1
    62    6   56       1
    63    8   57       1
    64    9   58       1
    65   10   59       1
    66   11   60       1
    67   12   61       1
    68   14   62       1
    69   18   63       1
    70   18   64       1
    71   20   65       1
    72   26   66       1
    73   32   67       1
    74   34   68       1
    75   34   69       1
    76   34   70       1
    77   36   71       1
    78   36   72       1
    79   36   73       1
    80   37   74       1
    81   41   75       1
    82   41   76       1
    83   42   77       1
    84   43   78       1
    85   44   79       1
    86   45   80       1
    87   46   81       1
    88   47   82       1
    89   48   83       1
@<TRIPOS>SUBSTRUCTURE
     1 FAD1319     1 GROUP             4 D     FAD     0 **** FAD D1319
