@<TRIPOS>MOLECULE
1kqw_RTL_1_ligand
   53    53     1     0     0
SMALL
NO_CHARGES


@<TRIPOS>ATOM
     1 C1          11.8050    54.7250     6.0140 C.3          1 RTL135   0.0000
     2 C2          10.5970    54.6510     6.9890 C.3          1 RTL135   0.0000
     3 C3           9.2630    54.9280     6.3460 C.3          1 RTL135   0.0000
     4 C4           9.2350    56.2860     5.6830 C.3          1 RTL135   0.0000
     5 C5          10.4700    56.5540     4.7800 C.2          1 RTL135   0.0000
     6 C6          11.6660    56.0000     5.0630 C.2          1 RTL135   0.0000
     7 C7          12.8610    56.4190     4.3370 C.2          1 RTL135   0.0000
     8 C8          13.7120    55.7950     3.5290 C.2          1 RTL135   0.0000
     9 C9          14.5610    56.5130     2.5720 C.2          1 RTL135   0.0000
    10 C10         15.4850    55.7520     1.9600 C.2          1 RTL135   0.0000
    11 C11         16.3460    56.1740     0.8610 C.3          1 RTL135   0.0000
    12 C12         16.8550    55.1400     0.1570 C.2          1 RTL135   0.0000
    13 C13         18.0070    55.2070    -0.7070 C.2          1 RTL135   0.0000
    14 C14         18.7780    54.1090    -0.8590 C.3          1 RTL135   0.0000
    15 C15         19.9300    53.7780    -0.0290 C.3          1 RTL135   0.0000
    16 O1          20.8380    54.8850    -0.0430 O.3          1 RTL135   0.0000
    17 C16         11.8230    53.4510     5.1200 C.3          1 RTL135   0.0000
    18 C17         13.0840    54.7710     6.8730 C.3          1 RTL135   0.0000
    19 C18         10.3270    57.8980     4.0140 C.3          1 RTL135   0.0000
    20 C19         13.9660    57.7360     1.8230 C.3          1 RTL135   0.0000
    21 C20         18.4270    56.5510    -1.3070 C.3          1 RTL135   0.0000
    22 H1          10.7397    55.3227     7.7159 H            1 RTL135   0.0000
    23 H2          10.5694    53.7329     7.3843 H            1 RTL135   0.0000
    24 H3           8.5515    54.8950     7.0479 H            1 RTL135   0.0000
    25 H4           9.0835    54.2266     5.6562 H            1 RTL135   0.0000
    26 H5           9.2049    56.9867     6.3958 H            1 RTL135   0.0000
    27 H6           8.4108    56.3475     5.1201 H            1 RTL135   0.0000
    28 H7          13.0882    57.3826     4.4778 H            1 RTL135   0.0000
    29 H8          13.7760    54.7981     3.5752 H            1 RTL135   0.0000
    30 H9          15.5914    54.8131     2.2874 H            1 RTL135   0.0000
    31 H10         17.1043    56.7061     1.2376 H            1 RTL135   0.0000
    32 H11         15.8115    56.7482     0.2409 H            1 RTL135   0.0000
    33 H12         16.3954    54.2560     0.2420 H            1 RTL135   0.0000
    34 H13         19.1274    54.1554    -1.7948 H            1 RTL135   0.0000
    35 H14         18.1551    53.3313    -0.7739 H            1 RTL135   0.0000
    36 H15         20.3846    52.9650    -0.3929 H            1 RTL135   0.0000
    37 H16         19.6298    53.6006     0.9082 H            1 RTL135   0.0000
    38 H17         21.7734    54.5504     0.0715 H            1 RTL135   0.0000
    39 H18         12.5995    53.4958     4.4914 H            1 RTL135   0.0000
    40 H19         11.9084    52.6394     5.6979 H            1 RTL135   0.0000
    41 H20         10.9727    53.3993     4.5963 H            1 RTL135   0.0000
    42 H21         13.8849    54.8192     6.2761 H            1 RTL135   0.0000
    43 H22         13.0598    55.5773     7.4640 H            1 RTL135   0.0000
    44 H23         13.1372    53.9464     7.4361 H            1 RTL135   0.0000
    45 H24         11.1345    58.0435     3.4424 H            1 RTL135   0.0000
    46 H25          9.5111    57.8674     3.4367 H            1 RTL135   0.0000
    47 H26         10.2433    58.6482     4.6699 H            1 RTL135   0.0000
    48 H27         14.6565    58.1194     1.2096 H            1 RTL135   0.0000
    49 H28         13.1709    57.4461     1.2903 H            1 RTL135   0.0000
    50 H29         13.6874    58.4301     2.4867 H            1 RTL135   0.0000
    51 H30         19.2382    56.4224    -1.8775 H            1 RTL135   0.0000
    52 H31         17.6812    56.9145    -1.8652 H            1 RTL135   0.0000
    53 H32         18.6360    57.1942    -0.5703 H            1 RTL135   0.0000
@<TRIPOS>BOND
     1    1    2       1
     2    1    6       1
     3    1   17       1
     4    1   18       1
     5    2    3       1
     6    3    4       1
     7    4    5       1
     8    5    6       2
     9    5   19       1
    10    6    7       1
    11    7    8       2
    12    8    9       1
    13    9   10       2
    14    9   20       1
    15   10   11       1
    16   11   12       1
    17   12   13       2
    18   13   14       1
    19   13   21       1
    20   14   15       1
    21   15   16       1
    22    2   22       1
    23    2   23       1
    24    3   24       1
    25    3   25       1
    26    4   26       1
    27    4   27       1
    28    7   28       1
    29    8   29       1
    30   10   30       1
    31   11   31       1
    32   11   32       1
    33   12   33       1
    34   14   34       1
    35   14   35       1
    36   15   36       1
    37   15   37       1
    38   16   38       1
    39   17   39       1
    40   17   40       1
    41   17   41       1
    42   18   42       1
    43   18   43       1
    44   18   44       1
    45   19   45       1
    46   19   46       1
    47   19   47       1
    48   20   48       1
    49   20   49       1
    50   20   50       1
    51   21   51       1
    52   21   52       1
    53   21   53       1
@<TRIPOS>SUBSTRUCTURE
     1 RTL135      1 GROUP             4 A     RTL     0 **** RTL A 135
