@<TRIPOS>MOLECULE
2hvd_ADP_3_ligand
   39    41     1     0     0
SMALL
NO_CHARGES


@<TRIPOS>ATOM
     1 PB          15.2060    92.2100    -4.5650 P.3          1 ADP160   0.0000
     2 O1B         16.1080    93.4110    -4.3860 O.co2        1 ADP160   0.0000
     3 O2B         15.8780    90.9760    -5.1250 O.co2        1 ADP160  -1.0000
     4 O3B         14.3120    91.9720    -3.3730 O.co2        1 ADP160  -1.0000
     5 PA          14.3260    92.6820    -7.2840 P.3          1 ADP160   0.0000
     6 O1A         15.5200    91.8470    -7.7060 O.co2        1 ADP160   0.0000
     7 O2A         12.9730    92.4050    -7.9050 O.co2        1 ADP160  -1.0000
     8 O3A         14.1190    92.6430    -5.6810 O.3          1 ADP160   0.0000
     9 O5'         14.6590    94.2340    -7.5460 O.3          1 ADP160   0.0000
    10 C5'         15.9530    94.7620    -7.2880 C.3          1 ADP160   0.0000
    11 C4'         15.7850    96.1160    -6.6250 C.3          1 ADP160   0.0000
    12 O4'         15.0530    96.9700    -7.5060 O.3          1 ADP160   0.0000
    13 C3'         15.0010    96.0530    -5.3190 C.3          1 ADP160   0.0000
    14 O3'         15.8590    96.0090    -4.1740 O.3          1 ADP160   0.0000
    15 C2'         14.1360    97.2980    -5.3290 C.3          1 ADP160   0.0000
    16 O2'         14.6690    98.3230    -4.4770 O.3          1 ADP160   0.0000
    17 C1'         14.1200    97.7730    -6.7800 C.3          1 ADP160   0.0000
    18 N9          12.7500    97.6600    -7.3480 N.pl3        1 ADP160   0.0000
    19 C8          12.1080    96.5210    -7.6750 C.2          1 ADP160   0.0000
    20 N7          10.8670    96.8000    -8.1570 N.2          1 ADP160   0.0000
    21 C5          10.7030    98.1410    -8.1440 C.ar         1 ADP160   0.0000
    22 C6           9.6390    99.1150    -8.5170 C.ar         1 ADP160   0.0000
    23 N6           8.4530    98.7090    -9.0210 N.pl3        1 ADP160   0.0000
    24 N1           9.8850   100.4350    -8.3330 N.ar         1 ADP160   0.0000
    25 C2          11.0570   100.8790    -7.8340 C.ar         1 ADP160   0.0000
    26 N3          12.0610   100.0480    -7.4820 N.ar         1 ADP160   0.0000
    27 C4          11.9500    98.6990    -7.6050 C.ar         1 ADP160   0.0000
    28 H5'1        16.4547    94.8649    -8.1469 H            1 ADP160   0.0000
    29 H5'2        16.4553    94.1468    -6.6803 H            1 ADP160   0.0000
    30 H4'         16.6860    96.5136    -6.4514 H            1 ADP160   0.0000
    31 H3'         14.4146    95.2430    -5.3241 H            1 ADP160   0.0000
    32 H5          16.0656    95.0569    -3.9487 H            1 ADP160   0.0000
    33 H2'         13.2074    97.0666    -5.0390 H            1 ADP160   0.0000
    34 H7          13.9204    98.8797    -4.1168 H            1 ADP160   0.0000
    35 H1'         14.4122    98.7287    -6.8156 H            1 ADP160   0.0000
    36 H9          12.4896    95.6018    -7.5772 H            1 ADP160   0.0000
    37 H10          7.7555    99.3834    -9.2634 H            1 ADP160   0.0000
    38 H11          8.2727    97.7341    -9.1517 H            1 ADP160   0.0000
    39 H12         11.1874   101.8639    -7.7202 H            1 ADP160   0.0000
@<TRIPOS>BOND
     1    1    2      ar
     2    1    3      ar
     3    1    4      ar
     4    1    8       1
     5    5    6      ar
     6    5    7      ar
     7    5    8       1
     8    5    9       1
     9    9   10       1
    10   10   11       1
    11   11   12       1
    12   11   13       1
    13   12   17       1
    14   13   14       1
    15   13   15       1
    16   15   16       1
    17   15   17       1
    18   17   18       1
    19   18   19       1
    20   18   27       1
    21   19   20       2
    22   20   21       1
    23   21   22      ar
    24   21   27      ar
    25   22   23       1
    26   22   24      ar
    27   24   25      ar
    28   25   26      ar
    29   26   27      ar
    30   25   39       1
    31   23   38       1
    32   23   37       1
    33   10   28       1
    34   10   29       1
    35   11   30       1
    36   13   31       1
    37   14   32       1
    38   15   33       1
    39   16   34       1
    40   17   35       1
    41   19   36       1
@<TRIPOS>SUBSTRUCTURE
     1 ADP160      1 GROUP             4 C     ADP     0 **** ADP C 160
