@<TRIPOS>MOLECULE
3qfx_CP6_1_ligand
   31    32     1     0     0
SMALL
NO_CHARGES


@<TRIPOS>ATOM
     1 N1         -21.8540    24.6870     7.1500 N.ar         1 CP6602   0.0000
     2 C2         -22.6600    23.7000     7.7340 C.ar         1 CP6602   0.0000
     3 C3         -20.4650    24.6640     7.3240 C.ar         1 CP6602   0.0000
     4 C4         -19.7890    23.5690     8.1460 C.ar         1 CP6602   0.0000
     5 C5         -20.7980    22.5570     8.7340 C.ar         1 CP6602   0.0000
     6 N6         -22.1620    22.6550     8.5120 N.ar         1 CP6602   1.0000
     7 C7         -18.3540    23.4550     8.3640 C.ar         1 CP6602   0.0000
     8 C8         -17.6240    24.1240     9.4060 C.ar         1 CP6602   0.0000
     9 C9         -16.2020    23.9550     9.5710 C.ar         1 CP6602   0.0000
    10 C10        -15.4560    23.0660     8.6460 C.ar         1 CP6602   0.0000
    11 C11        -16.1250    22.3780     7.5920 C.ar         1 CP6602   0.0000
    12 C12        -17.5570    22.5690     7.4520 C.ar         1 CP6602   0.0000
    13 N13        -19.6990    25.6200     6.7570 N.pl3        1 CP6602   0.0000
    14 N14        -24.0360    23.7490     7.5470 N.pl3        1 CP6602   0.0000
    15 C15        -20.3160    21.4060     9.5830 C.3          1 CP6602   0.0000
    16 C16        -20.4580    20.0020     9.0360 C.3          1 CP6602   0.0000
    17 CL1        -13.8440    22.9460     8.9410 Cl           1 CP6602   0.0000
    18 H1         -18.1174    24.7246    10.0352 H            1 CP6602   0.0000
    19 H2         -15.7207    24.4343    10.3049 H            1 CP6602   0.0000
    20 H3         -15.6222    21.7809     6.9670 H            1 CP6602   0.0000
    21 H4         -18.0335    22.0890     6.7154 H            1 CP6602   0.0000
    22 H5         -18.7068    25.6044     6.8807 H            1 CP6602   0.0000
    23 H6         -20.1237    26.3438     6.2132 H            1 CP6602   0.0000
    24 H7         -24.6217    23.0507     7.9585 H            1 CP6602   0.0000
    25 H8         -24.4406    24.4826     7.0010 H            1 CP6602   0.0000
    26 H9         -20.8229    21.4408    10.4443 H            1 CP6602   0.0000
    27 H10        -19.3438    21.5570     9.7621 H            1 CP6602   0.0000
    28 H11        -20.0996    19.3472     9.7014 H            1 CP6602   0.0000
    29 H12        -21.4236    19.8075     8.8637 H            1 CP6602   0.0000
    30 H13        -19.9445    19.9237     8.1815 H            1 CP6602   0.0000
    31 H14        -22.7857    21.9806     8.9072 H            1 CP6602   0.0000
@<TRIPOS>BOND
     1    1    2      ar
     2    1    3      ar
     3    2    6      ar
     4    2   14       1
     5    3    4      ar
     6    3   13       1
     7    4    5      ar
     8    4    7       1
     9    5    6      ar
    10    5   15       1
    11    7    8      ar
    12    7   12      ar
    13    8    9      ar
    14    9   10      ar
    15   10   11      ar
    16   10   17       1
    17   11   12      ar
    18   15   16       1
    19    8   18       1
    20    9   19       1
    21   11   20       1
    22   12   21       1
    23   13   22       1
    24   13   23       1
    25   14   24       1
    26   14   25       1
    27   15   26       1
    28   15   27       1
    29   16   28       1
    30   16   29       1
    31   16   30       1
    32    6   31       1
@<TRIPOS>SUBSTRUCTURE
     1 CP6602      1 GROUP             4 A     CP6     0 **** CP6 A 602
