@<TRIPOS>MOLECULE
2rd5_NLG_1_ligand
   22    21     1     0     0
SMALL
NO_CHARGES


@<TRIPOS>ATOM
     1 CA          91.4840    37.8110    49.3660 C.3          1 NLG2001   0.0000
     2 C           92.7250    37.2970    49.5660 C.2          1 NLG2001   0.0000
     3 OXT         93.6760    37.6500    48.8240 O.co2        1 NLG2001   0.0000
     4 O           92.9270    36.4680    50.4930 O.co2        1 NLG2001  -1.0000
     5 CB          91.2090    39.2480    49.7930 C.3          1 NLG2001   0.0000
     6 CG          92.0040    40.2840    49.0100 C.3          1 NLG2001   0.0000
     7 CD          91.2400    40.8420    47.8280 C.2          1 NLG2001   0.0000
     8 OE1         90.0480    40.5160    47.6140 O.co2        1 NLG2001   0.0000
     9 OE2         91.8620    41.6380    47.0930 O.co2        1 NLG2001  -1.0000
    10 C7          90.2360    35.9690    48.7720 C.2          1 NLG2001   0.0000
    11 C8          89.3130    35.0900    49.1070 C.3          1 NLG2001   0.0000
    12 O7          90.9070    35.7960    47.7670 O.2          1 NLG2001   0.0000
    13 N2          90.4010    37.0300    49.5720 N.am         1 NLG2001   0.0000
    14 HA          91.4706    37.9001    48.3701 H            1 NLG2001   0.0000
    15 HB1         91.4404    39.3390    50.7616 H            1 NLG2001   0.0000
    16 HB2         90.2350    39.4344    49.6640 H            1 NLG2001   0.0000
    17 HG1         92.8429    39.8556    48.6743 H            1 NLG2001   0.0000
    18 HG2         92.2374    41.0381    49.6240 H            1 NLG2001   0.0000
    19 H6          88.8622    35.3847    49.9496 H            1 NLG2001   0.0000
    20 H7          88.6366    35.0210    48.3737 H            1 NLG2001   0.0000
    21 H8          89.7398    34.1973    49.2520 H            1 NLG2001   0.0000
    22 H9          89.7447    37.2373    50.2975 H            1 NLG2001   0.0000
@<TRIPOS>BOND
     1    1    2       1
     2    1    5       1
     3    1   13       1
     4    2    3      ar
     5    2    4      ar
     6    5    6       1
     7    6    7       1
     8    7    8      ar
     9    7    9      ar
    10   10   11       1
    11   10   12       2
    12   10   13      am
    13    1   14       1
    14   13   22       1
    15    5   15       1
    16    5   16       1
    17    6   17       1
    18    6   18       1
    19   11   21       1
    20   11   19       1
    21   11   20       1
@<TRIPOS>SUBSTRUCTURE
     1 NLG2001     1 GROUP             4 A     NLG     0 **** NLG A2001
