@<TRIPOS>MOLECULE
4ggz_BTN_2_ligand
   31    32     1     0     0
SMALL
NO_CHARGES


@<TRIPOS>ATOM
     1 C11         26.1540     8.6120    28.2840 C.2          1 BTN900   0.0000
     2 O11         26.8720     9.5990    27.9500 O.co2        1 BTN900   0.0000
     3 O12         25.4410     8.6620    29.3240 O.co2        1 BTN900  -1.0000
     4 C10         26.1410     7.3720    27.4250 C.3          1 BTN900   0.0000
     5 C9          25.9360     6.0460    28.1720 C.3          1 BTN900   0.0000
     6 C8          27.1310     5.7240    29.0900 C.3          1 BTN900   0.0000
     7 C7          26.9070     4.4250    29.9160 C.3          1 BTN900   0.0000
     8 C2          28.1040     4.1290    30.8520 C.3          1 BTN900   0.0000
     9 S1          29.3930     3.3020    30.1490 S.3          1 BTN900   0.0000
    10 C6          30.0910     2.9790    31.7850 C.3          1 BTN900   0.0000
    11 C5          28.9190     2.6270    32.6530 C.3          1 BTN900   0.0000
    12 N1          28.6500     1.1930    32.5710 N.am         1 BTN900   0.0000
    13 C3          27.4680     0.9870    31.9920 C.2          1 BTN900   0.0000
    14 O3          26.9450    -0.2730    31.8160 O.2          1 BTN900   0.0000
    15 N2          26.8870     2.0840    31.5830 N.am         1 BTN900   0.0000
    16 C4          27.6940     3.2240    32.0190 C.3          1 BTN900   0.0000
    17 H1          27.0167     7.3218    26.9448 H            1 BTN900   0.0000
    18 H2          25.4008     7.4672    26.7594 H            1 BTN900   0.0000
    19 H3          25.8319     5.3094    27.5038 H            1 BTN900   0.0000
    20 H4          25.1074     6.1111    28.7281 H            1 BTN900   0.0000
    21 H5          27.2664     6.4874    29.7215 H            1 BTN900   0.0000
    22 H6          27.9485     5.6093    28.5256 H            1 BTN900   0.0000
    23 H7          26.7899     3.6568    29.2866 H            1 BTN900   0.0000
    24 H8          26.0811     4.5312    30.4697 H            1 BTN900   0.0000
    25 H9          28.4426     4.9942    31.2218 H            1 BTN900   0.0000
    26 H10         30.5542     3.7931    32.1352 H            1 BTN900   0.0000
    27 H11         30.7387     2.2181    31.7455 H            1 BTN900   0.0000
    28 H12         29.0429     2.9340    33.5966 H            1 BTN900   0.0000
    29 H13         29.2618     0.4738    32.9003 H            1 BTN900   0.0000
    30 H14         27.1878     3.7563    32.6976 H            1 BTN900   0.0000
    31 H15         26.0357     2.1355    31.0609 H            1 BTN900   0.0000
@<TRIPOS>BOND
     1    1    2      ar
     2    1    3      ar
     3    1    4       1
     4    4    5       1
     5    5    6       1
     6    6    7       1
     7    7    8       1
     8    8    9       1
     9    8   16       1
    10    9   10       1
    11   10   11       1
    12   11   12       1
    13   11   16       1
    14   12   13      am
    15   13   14       2
    16   13   15      am
    17   15   16       1
    18   16   30       1
    19    4   17       1
    20    4   18       1
    21    5   19       1
    22    5   20       1
    23    6   21       1
    24    6   22       1
    25    7   23       1
    26    7   24       1
    27    8   25       1
    28   10   26       1
    29   10   27       1
    30   11   28       1
    31   12   29       1
    32   15   31       1
@<TRIPOS>SUBSTRUCTURE
     1 BTN900      1 GROUP             4 B     BTN     0 **** BTN B 900
