@<TRIPOS>MOLECULE
2o23_NAD_2_ligand
   70    74     1     0     0
SMALL
NO_CHARGES


@<TRIPOS>ATOM
     1 PA          46.0080    42.0740     6.3690 P.3          1 NAD803   0.0000
     2 O1A         45.9230    43.3010     7.2020 O.co2        1 NAD803   0.0000
     3 O2A         46.9690    41.0220     6.7360 O.co2        1 NAD803  -1.0000
     4 O5B         46.3040    42.4620     4.8590 O.3          1 NAD803   0.0000
     5 C5B         45.6500    43.5590     4.2520 C.3          1 NAD803   0.0000
     6 C4B         46.6620    44.2590     3.3630 C.3          1 NAD803   0.0000
     7 O4B         45.9320    45.3100     2.6830 O.3          1 NAD803   0.0000
     8 C3B         47.8390    44.8880     4.1010 C.3          1 NAD803   0.0000
     9 O3B         49.0970    44.4590     3.5960 O.3          1 NAD803   0.0000
    10 C2B         47.5890    46.3800     3.9020 C.3          1 NAD803   0.0000
    11 O2B         48.7650    47.1730     3.8650 O.3          1 NAD803   0.0000
    12 C1B         46.7950    46.4190     2.5910 C.3          1 NAD803   0.0000
    13 N9A         46.0740    47.6840     2.4300 N.pl3        1 NAD803   0.0000
    14 C8A         45.3120    48.3340     3.3760 C.2          1 NAD803   0.0000
    15 N7A         44.8570    49.5060     2.8620 N.2          1 NAD803   0.0000
    16 C5A         45.3830    49.6070     1.5960 C.ar         1 NAD803   0.0000
    17 C6A         45.2900    50.5830     0.6190 C.ar         1 NAD803   0.0000
    18 N6A         44.6160    51.7400     0.7810 N.pl3        1 NAD803   0.0000
    19 N1A         45.9420    50.3640    -0.5430 N.ar         1 NAD803   0.0000
    20 C2A         46.6890    49.2420    -0.7640 C.ar         1 NAD803   0.0000
    21 N3A         46.8040    48.2540     0.1770 N.ar         1 NAD803   0.0000
    22 C4A         46.1450    48.4680     1.3340 C.ar         1 NAD803   0.0000
    23 O3          44.5050    41.5230     6.3040 O.3          1 NAD803   0.0000
    24 PN          43.8960    40.1710     5.6840 P.3          1 NAD803   0.0000
    25 O1N         43.3460    39.3720     6.7990 O.co2        1 NAD803   0.0000
    26 O2N         44.8510    39.5340     4.7250 O.co2        1 NAD803  -1.0000
    27 O5D         42.6850    40.7670     4.8670 O.3          1 NAD803   0.0000
    28 C5D         42.6140    40.6080     3.4500 C.3          1 NAD803   0.0000
    29 C4D         41.1880    40.8410     3.0240 C.3          1 NAD803   0.0000
    30 O4D         40.3670    39.8120     3.5800 O.3          1 NAD803   0.0000
    31 C3D         40.5910    42.1470     3.5210 C.3          1 NAD803   0.0000
    32 O3D         39.7170    42.6790     2.5060 O.3          1 NAD803   0.0000
    33 C2D         39.7580    41.7390     4.7280 C.3          1 NAD803   0.0000
    34 O2D         38.7010    42.6260     4.9780 O.3          1 NAD803   0.0000
    35 C1D         39.2670    40.3820     4.2590 C.3          1 NAD803   0.0000
    36 N1N         38.8230    39.4600     5.3020 N.ar         1 NAD803   1.0000
    37 C2N         39.7030    39.0200     6.2510 C.ar         1 NAD803   0.0000
    38 C3N         39.2270    38.1090     7.1940 C.ar         1 NAD803   0.0000
    39 C7N         40.1540    37.6120     8.2320 C.2          1 NAD803   0.0000
    40 O7N         39.5700    36.9470     9.2590 O.2          1 NAD803   0.0000
    41 N7N         41.4690    37.7440     8.1740 N.am         1 NAD803   0.0000
    42 C4N         37.8950    37.6570     7.1650 C.ar         1 NAD803   0.0000
    43 C5N         37.0440    38.1080     6.1490 C.ar         1 NAD803   0.0000
    44 C6N         37.5290    39.0030     5.2230 C.ar         1 NAD803   0.0000
    45 H5B1        45.3182    44.1895     4.9537 H            1 NAD803   0.0000
    46 H5B2        44.8792    43.2357     3.7030 H            1 NAD803   0.0000
    47 H4B         47.0085    43.6096     2.6861 H            1 NAD803   0.0000
    48 H3B         47.7781    44.6671     5.0744 H            1 NAD803   0.0000
    49 H5          49.1718    44.7097     2.6308 H            1 NAD803   0.0000
    50 H2B         47.0029    46.7090     4.6424 H            1 NAD803   0.0000
    51 H7          49.0904    47.2429     2.9220 H            1 NAD803   0.0000
    52 H1B         47.4192    46.2916     1.8202 H            1 NAD803   0.0000
    53 H8A         45.1232    47.9955     4.2978 H            1 NAD803   0.0000
    54 H6A1        44.5840    52.4083     0.0378 H            1 NAD803   0.0000
    55 H6A2        44.1483    51.9295     1.6443 H            1 NAD803   0.0000
    56 H2A         47.1652    49.1393    -1.6373 H            1 NAD803   0.0000
    57 H5D1        42.8961    39.6822     3.1982 H            1 NAD803   0.0000
    58 H5D2        43.2139    41.2722     3.0039 H            1 NAD803   0.0000
    59 H4D         41.1304    40.8085     2.0262 H            1 NAD803   0.0000
    60 H3D         41.3028    42.8030     3.7720 H            1 NAD803   0.0000
    61 H17         39.7078    43.6773     2.5638 H            1 NAD803   0.0000
    62 H2D         40.3361    41.6432     5.5383 H            1 NAD803   0.0000
    63 H19         39.0107    43.3476     5.5972 H            1 NAD803   0.0000
    64 H1D         38.5201    40.5164     3.6077 H            1 NAD803   0.0000
    65 H2N         40.6507    39.3387     6.2685 H            1 NAD803   0.0000
    66 H7N1        42.0406    37.3843     8.9115 H            1 NAD803   0.0000
    67 H7N2        41.8914    38.2035     7.3927 H            1 NAD803   0.0000
    68 H4N         37.5604    37.0218     7.8611 H            1 NAD803   0.0000
    69 H5N         36.0990    37.7850     6.0970 H            1 NAD803   0.0000
    70 H6N         36.9345    39.3239     4.4857 H            1 NAD803   0.0000
@<TRIPOS>BOND
     1    1    2      ar
     2    1    3      ar
     3    1    4       1
     4    1   23       1
     5    4    5       1
     6    5    6       1
     7    6    7       1
     8    6    8       1
     9    7   12       1
    10    8    9       1
    11    8   10       1
    12   10   11       1
    13   10   12       1
    14   12   13       1
    15   13   14       1
    16   13   22       1
    17   14   15       2
    18   15   16       1
    19   16   17      ar
    20   16   22      ar
    21   17   18       1
    22   17   19      ar
    23   19   20      ar
    24   20   21      ar
    25   21   22      ar
    26   23   24       1
    27   24   25      ar
    28   24   26      ar
    29   24   27       1
    30   27   28       1
    31   28   29       1
    32   29   30       1
    33   29   31       1
    34   30   35       1
    35   31   32       1
    36   31   33       1
    37   33   34       1
    38   33   35       1
    39   35   36       1
    40   36   37      ar
    41   36   44      ar
    42   37   38      ar
    43   38   39       1
    44   38   42      ar
    45   39   40       2
    46   39   41      am
    47   42   43      ar
    48   43   44      ar
    49   44   70       1
    50    5   45       1
    51    5   46       1
    52    6   47       1
    53    8   48       1
    54    9   49       1
    55   10   50       1
    56   11   51       1
    57   12   52       1
    58   14   53       1
    59   18   54       1
    60   18   55       1
    61   20   56       1
    62   43   69       1
    63   28   57       1
    64   28   58       1
    65   29   59       1
    66   31   60       1
    67   32   61       1
    68   33   62       1
    69   34   63       1
    70   35   64       1
    71   37   65       1
    72   41   66       1
    73   41   67       1
    74   42   68       1
@<TRIPOS>SUBSTRUCTURE
     1 NAD803      1 GROUP             4 B     NAD     0 **** NAD B 803
