@<TRIPOS>MOLECULE
1mui_AB1_1_ligand
   94    97     1     0     0
SMALL
NO_CHARGES


@<TRIPOS>ATOM
     1 C1         -12.8260    12.8350    34.8630 C.3          1 AB1100   0.0000
     2 C2         -10.6950    13.4560    33.6930 C.3          1 AB1100   0.0000
     3 N1         -11.3120    14.7950    33.3690 N.am         1 AB1100   0.0000
     4 C3         -12.6020    15.1110    33.7730 C.2          1 AB1100   0.0000
     5 N2         -13.3030    14.1780    34.4780 N.am         1 AB1100   0.0000
     6 C4          -6.2280    18.1490    27.5220 C.ar         1 AB1100   0.0000
     7 C5          -5.5330    18.8920    26.5370 C.ar         1 AB1100   0.0000
     8 C6          -4.2180    18.5350    26.1490 C.ar         1 AB1100   0.0000
     9 C7          -3.5830    17.4290    26.7450 C.ar         1 AB1100   0.0000
    10 C8          -4.2660    16.6810    27.7290 C.ar         1 AB1100   0.0000
    11 C9          -5.5790    17.0370    28.1160 C.ar         1 AB1100   0.0000
    12 O1         -13.1160    16.1860    33.5160 O.2          1 AB1100   0.0000
    13 C10        -10.5260    15.8120    32.5870 C.3          1 AB1100   0.0000
    14 C11        -10.3560    15.3130    31.1260 C.2          1 AB1100   0.0000
    15 N3         -11.2180    15.9240    30.2550 N.am         1 AB1100   0.0000
    16 C12        -11.2830    15.6520    28.8020 C.3          1 AB1100   0.0000
    17 C13         -9.1410    16.1410    33.2720 C.3          1 AB1100   0.0000
    18 C14         -8.3090    17.1860    32.5040 C.3          1 AB1100   0.0000
    19 C15         -9.3490    16.6480    34.7180 C.3          1 AB1100   0.0000
    20 O2          -9.5230    14.4560    30.8260 O.2          1 AB1100   0.0000
    21 C16        -12.7040    11.1390    29.1350 C.ar         1 AB1100   0.0000
    22 C17        -13.3650    11.1000    30.3860 C.ar         1 AB1100   0.0000
    23 C18        -13.7730    12.3060    31.0020 C.ar         1 AB1100   0.0000
    24 C19        -13.5190    13.5420    30.3650 C.ar         1 AB1100   0.0000
    25 C20        -12.8550    13.5900    29.1090 C.ar         1 AB1100   0.0000
    26 C21        -12.4510    12.3790    28.5010 C.ar         1 AB1100   0.0000
    27 C22        -12.5910    14.9100    28.4420 C.3          1 AB1100   0.0000
    28 C23        -11.2870    16.9600    27.9810 C.3          1 AB1100   0.0000
    29 C24        -10.1160    17.9510    28.1120 C.3          1 AB1100   0.0000
    30 C25         -8.7120    17.4430    27.6950 C.3          1 AB1100   0.0000
    31 N4          -8.7530    17.0970    26.2550 N.am         1 AB1100   0.0000
    32 C26         -8.2660    15.9270    25.7320 C.2          1 AB1100   0.0000
    33 C27         -8.3990    15.8070    24.2010 C.3          1 AB1100   0.0000
    34 O3          -8.7210    17.0700    23.5900 O.3          1 AB1100   0.0000
    35 C28         -8.2970    17.1830    22.2520 C.ar         1 AB1100   0.0000
    36 O4         -10.4330    19.0340    27.2710 O.3          1 AB1100   0.0000
    37 C29         -7.6370    18.5480    27.9160 C.3          1 AB1100   0.0000
    38 O5          -7.7420    15.0210    26.3890 O.2          1 AB1100   0.0000
    39 C30         -9.0670    16.6400    21.1650 C.ar         1 AB1100   0.0000
    40 C31         -8.5870    16.7880    19.8360 C.ar         1 AB1100   0.0000
    41 C32         -7.3740    17.4590    19.5740 C.ar         1 AB1100   0.0000
    42 C33         -6.6140    17.9970    20.6320 C.ar         1 AB1100   0.0000
    43 C34         -7.0610    17.8680    21.9690 C.ar         1 AB1100   0.0000
    44 C35         -6.2340    18.4510    23.0640 C.3          1 AB1100   0.0000
    45 C36        -10.3740    15.9150    21.3830 C.3          1 AB1100   0.0000
    46 C37        -11.2960    12.7740    34.9400 C.3          1 AB1100   0.0000
    47 H1         -13.1425    12.1723    34.1843 H            1 AB1100   0.0000
    48 H2         -13.2046    12.6016    35.7586 H            1 AB1100   0.0000
    49 H3          -9.7163    13.5900    33.8487 H            1 AB1100   0.0000
    50 H4         -10.8278    12.8503    32.9085 H            1 AB1100   0.0000
    51 H5         -14.2290    14.4273    34.7615 H            1 AB1100   0.0000
    52 H6          -5.9766    19.6796    26.1093 H            1 AB1100   0.0000
    53 H7          -3.7406    19.0691    25.4513 H            1 AB1100   0.0000
    54 H8          -2.6547    17.1748    26.4735 H            1 AB1100   0.0000
    55 H9          -3.8185    15.8946    28.1549 H            1 AB1100   0.0000
    56 H10         -6.0533    16.5003    28.8139 H            1 AB1100   0.0000
    57 H11        -11.0612    16.6563    32.5605 H            1 AB1100   0.0000
    58 H12        -11.8496    16.6036    30.6281 H            1 AB1100   0.0000
    59 H13        -10.4987    15.0929    28.5330 H            1 AB1100   0.0000
    60 H14         -8.6096    15.2950    33.3152 H            1 AB1100   0.0000
    61 H15         -7.4490    17.3483    32.9878 H            1 AB1100   0.0000
    62 H16         -8.1148    16.8465    31.5837 H            1 AB1100   0.0000
    63 H17         -8.8232    18.0414    32.4421 H            1 AB1100   0.0000
    64 H18         -8.4611    16.8497    35.1315 H            1 AB1100   0.0000
    65 H19         -9.9061    17.4783    34.7032 H            1 AB1100   0.0000
    66 H20         -9.8143    15.9439    35.2544 H            1 AB1100   0.0000
    67 H21        -12.4147    10.2876    28.6976 H            1 AB1100   0.0000
    68 H22        -13.5428    10.2231    30.8326 H            1 AB1100   0.0000
    69 H23        -14.2400    12.2843    31.8860 H            1 AB1100   0.0000
    70 H24        -13.8098    14.3926    30.8030 H            1 AB1100   0.0000
    71 H25        -11.9834    12.3987    27.6173 H            1 AB1100   0.0000
    72 H26        -12.5801    14.7484    27.4552 H            1 AB1100   0.0000
    73 H27        -13.3513    15.5175    28.6720 H            1 AB1100   0.0000
    74 H28        -12.1167    17.4576    28.2338 H            1 AB1100   0.0000
    75 H29        -11.3367    16.6967    27.0176 H            1 AB1100   0.0000
    76 H30        -10.0737    18.2774    29.0563 H            1 AB1100   0.0000
    77 H31         -8.4753    16.6316    28.2294 H            1 AB1100   0.0000
    78 H32         -9.1613    17.7580    25.6254 H            1 AB1100   0.0000
    79 H33         -9.1240    15.1514    23.9898 H            1 AB1100   0.0000
    80 H34         -7.5324    15.4779    23.8259 H            1 AB1100   0.0000
    81 H35        -11.3138    18.8657    26.8284 H            1 AB1100   0.0000
    82 H36         -7.8969    19.3480    27.3753 H            1 AB1100   0.0000
    83 H37         -7.6327    18.7887    28.8866 H            1 AB1100   0.0000
    84 H38         -9.1163    16.4113    19.0758 H            1 AB1100   0.0000
    85 H39         -7.0515    17.5535    18.6321 H            1 AB1100   0.0000
    86 H40         -5.7556    18.4717    20.4375 H            1 AB1100   0.0000
    87 H41         -5.4204    18.8821    22.6739 H            1 AB1100   0.0000
    88 H42         -6.7698    19.1359    23.5579 H            1 AB1100   0.0000
    89 H43         -5.9571    17.7261    23.6947 H            1 AB1100   0.0000
    90 H44        -10.7429    15.6205    20.5014 H            1 AB1100   0.0000
    91 H45        -10.2189    15.1155    21.9633 H            1 AB1100   0.0000
    92 H46        -11.0255    16.5290    21.8286 H            1 AB1100   0.0000
    93 H47        -11.0010    11.8191    34.9733 H            1 AB1100   0.0000
    94 H48        -10.9838    13.2482    35.7632 H            1 AB1100   0.0000
@<TRIPOS>BOND
     1    1    5       1
     2    1   46       1
     3    2    3       1
     4    2   46       1
     5    3    4      am
     6    3   13       1
     7    4    5      am
     8    4   12       2
     9    6    7      ar
    10    6   11      ar
    11    6   37       1
    12    7    8      ar
    13    8    9      ar
    14    9   10      ar
    15   10   11      ar
    16   13   14       1
    17   13   17       1
    18   14   15      am
    19   14   20       2
    20   15   16       1
    21   16   27       1
    22   16   28       1
    23   17   18       1
    24   17   19       1
    25   21   22      ar
    26   21   26      ar
    27   22   23      ar
    28   23   24      ar
    29   24   25      ar
    30   25   26      ar
    31   25   27       1
    32   28   29       1
    33   29   30       1
    34   29   36       1
    35   30   31       1
    36   30   37       1
    37   31   32      am
    38   32   33       1
    39   32   38       2
    40   33   34       1
    41   34   35       1
    42   35   39      ar
    43   35   43      ar
    44   39   40      ar
    45   39   45       1
    46   40   41      ar
    47   41   42      ar
    48   42   43      ar
    49   43   44       1
    50    1   47       1
    51    1   48       1
    52    2   49       1
    53    2   50       1
    54    5   51       1
    55    7   52       1
    56    8   53       1
    57    9   54       1
    58   10   55       1
    59   11   56       1
    60   13   57       1
    61   15   58       1
    62   16   59       1
    63   17   60       1
    64   18   61       1
    65   18   62       1
    66   18   63       1
    67   19   64       1
    68   19   65       1
    69   19   66       1
    70   21   67       1
    71   22   68       1
    72   23   69       1
    73   24   70       1
    74   26   71       1
    75   27   72       1
    76   27   73       1
    77   28   74       1
    78   28   75       1
    79   29   76       1
    80   30   77       1
    81   31   78       1
    82   33   79       1
    83   33   80       1
    84   36   81       1
    85   37   82       1
    86   37   83       1
    87   40   84       1
    88   41   85       1
    89   42   86       1
    90   44   87       1
    91   44   88       1
    92   44   89       1
    93   45   90       1
    94   45   91       1
    95   45   92       1
    96   46   93       1
    97   46   94       1
@<TRIPOS>SUBSTRUCTURE
     1 AB1100      1 GROUP             4 B     AB1     0 **** AB1 B 100
