@<TRIPOS>MOLECULE
3ez6_ADP_2_ligand
   39    41     1     0     0
SMALL
NO_CHARGES


@<TRIPOS>ATOM
     1 PB         -46.5470    25.8510     7.6060 P.3          1 ADP502   0.0000
     2 O1B        -47.4660    26.6740     6.8540 O.co2        1 ADP502   0.0000
     3 O2B        -46.6390    24.6150     8.3590 O.co2        1 ADP502  -1.0000
     4 O3B        -45.0190    26.4930     7.5640 O.co2        1 ADP502  -1.0000
     5 PA         -46.8290    26.8830    10.4930 P.3          1 ADP502   0.0000
     6 O1A        -47.5350    25.7950    11.2360 O.co2        1 ADP502   0.0000
     7 O2A        -45.3860    27.0610    10.7410 O.co2        1 ADP502  -1.0000
     8 O3A        -47.0330    26.7530     8.8450 O.3          1 ADP502   0.0000
     9 O5'        -47.6840    28.1730    10.8390 O.3          1 ADP502   0.0000
    10 C5'        -47.3130    29.4970    10.3290 C.3          1 ADP502   0.0000
    11 C4'        -47.1240    30.5430    11.4450 C.3          1 ADP502   0.0000
    12 O4'        -48.4340    30.8270    11.9950 O.3          1 ADP502   0.0000
    13 C3'        -46.2960    30.1510    12.6990 C.3          1 ADP502   0.0000
    14 O3'        -45.4130    31.2350    13.0710 O.3          1 ADP502   0.0000
    15 C2'        -47.3270    29.7880    13.7160 C.3          1 ADP502   0.0000
    16 O2'        -46.8560    30.0540    15.0430 O.3          1 ADP502   0.0000
    17 C1'        -48.5460    30.6170    13.4210 C.3          1 ADP502   0.0000
    18 N9         -49.9020    29.9830    13.5620 N.pl3        1 ADP502   0.0000
    19 C8         -50.4180    28.7870    13.0680 C.2          1 ADP502   0.0000
    20 N7         -51.6610    28.5480    13.3730 N.2          1 ADP502   0.0000
    21 C5         -51.9880    29.6670    14.1260 C.ar         1 ADP502   0.0000
    22 C6         -53.1930    30.1000    14.7750 C.ar         1 ADP502   0.0000
    23 N6         -54.3020    29.3570    14.7330 N.pl3        1 ADP502   0.0000
    24 N1         -53.1920    31.3120    15.4690 N.ar         1 ADP502   0.0000
    25 C2         -52.0650    32.0990    15.5280 C.ar         1 ADP502   0.0000
    26 N3         -50.8580    31.8000    14.9400 N.ar         1 ADP502   0.0000
    27 C4         -50.9010    30.5600    14.2460 C.ar         1 ADP502   0.0000
    28 H5'1       -48.0344    29.8148     9.7137 H            1 ADP502   0.0000
    29 H5'2       -46.4551    29.4139     9.8220 H            1 ADP502   0.0000
    30 H4'        -46.7453    31.3799    11.0499 H            1 ADP502   0.0000
    31 H3'        -45.7477    29.3419    12.4876 H            1 ADP502   0.0000
    32 H5         -44.8850    30.9726    13.8787 H            1 ADP502   0.0000
    33 H2'        -47.5539    28.8179    13.6302 H            1 ADP502   0.0000
    34 H7         -47.2760    29.4090    15.6813 H            1 ADP502   0.0000
    35 H1'        -48.5094    31.4878    13.9113 H            1 ADP502   0.0000
    36 H9         -49.8717    28.1559    12.5174 H            1 ADP502   0.0000
    37 H10        -55.1332    29.6730    15.1904 H            1 ADP502   0.0000
    38 H11        -54.3012    28.4846    14.2442 H            1 ADP502   0.0000
    39 H12        -52.1284    32.9563    16.0389 H            1 ADP502   0.0000
@<TRIPOS>BOND
     1    1    2      ar
     2    1    3      ar
     3    1    4      ar
     4    1    8       1
     5    5    6      ar
     6    5    7      ar
     7    5    8       1
     8    5    9       1
     9    9   10       1
    10   10   11       1
    11   11   12       1
    12   11   13       1
    13   12   17       1
    14   13   14       1
    15   13   15       1
    16   15   16       1
    17   15   17       1
    18   17   18       1
    19   18   19       1
    20   18   27       1
    21   19   20       2
    22   20   21       1
    23   21   22      ar
    24   21   27      ar
    25   22   23       1
    26   22   24      ar
    27   24   25      ar
    28   25   26      ar
    29   26   27      ar
    30   25   39       1
    31   23   38       1
    32   23   37       1
    33   10   28       1
    34   10   29       1
    35   11   30       1
    36   13   31       1
    37   14   32       1
    38   15   33       1
    39   16   34       1
    40   17   35       1
    41   19   36       1
@<TRIPOS>SUBSTRUCTURE
     1 ADP502      1 GROUP             4 B     ADP     0 **** ADP B 502
