@<TRIPOS>MOLECULE
3qv1_NAD_3_ligand
   70    74     1     0     0
SMALL
NO_CHARGES


@<TRIPOS>ATOM
     1 PA         -10.1590    43.2650    10.6340 P.3          1 NAD335   0.0000
     2 O1A        -10.4800    42.8000     9.3170 O.co2        1 NAD335   0.0000
     3 O2A         -8.6980    43.1270    10.8980 O.co2        1 NAD335  -1.0000
     4 O5B        -11.0770    42.5720    11.7860 O.3          1 NAD335   0.0000
     5 C5B        -12.4120    42.1530    11.6510 C.3          1 NAD335   0.0000
     6 C4B        -12.4690    40.9180    12.5400 C.3          1 NAD335   0.0000
     7 O4B        -13.7860    40.4070    12.7850 O.3          1 NAD335   0.0000
     8 C3B        -11.6500    39.8040    11.8990 C.3          1 NAD335   0.0000
     9 O3B        -10.8780    39.2970    12.9750 O.3          1 NAD335   0.0000
    10 C2B        -12.7310    38.8720    11.3010 C.3          1 NAD335   0.0000
    11 O2B        -12.3120    37.5200    11.1810 O.3          1 NAD335   0.0000
    12 C1B        -13.8440    39.0530    12.3240 C.3          1 NAD335   0.0000
    13 N9A        -15.2070    38.8080    11.8520 N.pl3        1 NAD335   0.0000
    14 C8A        -15.7640    39.1160    10.6290 C.2          1 NAD335   0.0000
    15 N7A        -17.0540    38.7660    10.6780 N.2          1 NAD335   0.0000
    16 C5A        -17.2940    38.2210    11.9240 C.ar         1 NAD335   0.0000
    17 C6A        -18.4360    37.6870    12.5040 C.ar         1 NAD335   0.0000
    18 N6A        -19.5580    37.7270    11.8110 N.pl3        1 NAD335   0.0000
    19 N1A        -18.4320    37.2150    13.8070 N.ar         1 NAD335   0.0000
    20 C2A        -17.2520    37.2970    14.5310 C.ar         1 NAD335   0.0000
    21 N3A        -16.1260    37.8380    13.9430 N.ar         1 NAD335   0.0000
    22 C4A        -16.1540    38.2710    12.6580 C.ar         1 NAD335   0.0000
    23 O3         -10.7420    44.7670    10.5830 O.3          1 NAD335   0.0000
    24 PN         -10.2350    46.0840    11.2460 P.3          1 NAD335   0.0000
    25 O1N         -9.1180    46.7860    10.6340 O.co2        1 NAD335   0.0000
    26 O2N        -10.0480    45.7040    12.6900 O.co2        1 NAD335  -1.0000
    27 O5D        -11.5770    46.9150    11.0550 O.3          1 NAD335   0.0000
    28 C5D        -12.7800    46.4220    11.6170 C.3          1 NAD335   0.0000
    29 C4D        -13.7270    47.5380    11.9530 C.3          1 NAD335   0.0000
    30 O4D        -13.1260    48.6130    12.6750 O.3          1 NAD335   0.0000
    31 C3D        -14.2660    48.1080    10.6580 C.3          1 NAD335   0.0000
    32 O3D        -15.6130    48.5260    10.8200 O.3          1 NAD335   0.0000
    33 C2D        -13.3100    49.2590    10.4440 C.3          1 NAD335   0.0000
    34 O2D        -13.7640    50.2210     9.5420 O.3          1 NAD335   0.0000
    35 C1D        -13.1770    49.7730    11.8500 C.3          1 NAD335   0.0000
    36 N1N        -11.9720    50.5990    12.0180 N.ar         1 NAD335   1.0000
    37 C2N        -10.7840    50.3000    11.3770 C.ar         1 NAD335   0.0000
    38 C3N         -9.6730    51.1150    11.5930 C.ar         1 NAD335   0.0000
    39 C7N         -8.3140    50.7450    11.1270 C.2          1 NAD335   0.0000
    40 O7N         -7.4120    51.7680    11.0470 O.2          1 NAD335   0.0000
    41 N7N         -8.0060    49.5130    10.8080 N.am         1 NAD335   0.0000
    42 C4N         -9.7720    52.2030    12.4400 C.ar         1 NAD335   0.0000
    43 C5N        -10.9690    52.5030    13.0450 C.ar         1 NAD335   0.0000
    44 C6N        -12.0540    51.6830    12.8400 C.ar         1 NAD335   0.0000
    45 H5B1       -12.6231    41.9231    10.7010 H            1 NAD335   0.0000
    46 H5B2       -13.0449    42.8575    11.9720 H            1 NAD335   0.0000
    47 H4B        -12.0528    41.1461    13.4202 H            1 NAD335   0.0000
    48 H3B        -11.0587    40.1681    11.1794 H            1 NAD335   0.0000
    49 H5         -11.4874    38.9567    13.6912 H            1 NAD335   0.0000
    50 H2B        -13.0260    39.2184    10.4105 H            1 NAD335   0.0000
    51 H7         -12.0761    37.1627    12.0847 H            1 NAD335   0.0000
    52 H1B        -13.6635    38.4469    13.0986 H            1 NAD335   0.0000
    53 H8A        -15.2908    39.5256     9.8491 H            1 NAD335   0.0000
    54 H6A1       -20.3993    37.3510    12.1994 H            1 NAD335   0.0000
    55 H6A2       -19.5671    38.1333    10.8973 H            1 NAD335   0.0000
    56 H2A        -17.2169    36.9660    15.4740 H            1 NAD335   0.0000
    57 H5D1       -12.5651    45.9154    12.4520 H            1 NAD335   0.0000
    58 H5D2       -13.2191    45.8098    10.9594 H            1 NAD335   0.0000
    59 H4D        -14.4872    47.1703    12.4887 H            1 NAD335   0.0000
    60 H3D        -14.1886    47.4405     9.9175 H            1 NAD335   0.0000
    61 H17        -15.6838    49.5047    10.6274 H            1 NAD335   0.0000
    62 H2D        -12.4274    48.9045    10.1352 H            1 NAD335   0.0000
    63 H19        -13.0801    50.9453     9.4548 H            1 NAD335   0.0000
    64 H1D        -13.9855    50.3127    12.0847 H            1 NAD335   0.0000
    65 H2N        -10.7222    49.5101    10.7668 H            1 NAD335   0.0000
    66 H7N1        -7.0814    49.2933    10.4969 H            1 NAD335   0.0000
    67 H7N2        -8.6954    48.7918    10.8755 H            1 NAD335   0.0000
    68 H4N         -8.9695    52.7740    12.6132 H            1 NAD335   0.0000
    69 H5N        -11.0504    53.3105    13.6292 H            1 NAD335   0.0000
    70 H6N        -12.9175    51.8856    13.3018 H            1 NAD335   0.0000
@<TRIPOS>BOND
     1    1    2      ar
     2    1    3      ar
     3    1    4       1
     4    1   23       1
     5    4    5       1
     6    5    6       1
     7    6    7       1
     8    6    8       1
     9    7   12       1
    10    8    9       1
    11    8   10       1
    12   10   11       1
    13   10   12       1
    14   12   13       1
    15   13   14       1
    16   13   22       1
    17   14   15       2
    18   15   16       1
    19   16   17      ar
    20   16   22      ar
    21   17   18       1
    22   17   19      ar
    23   19   20      ar
    24   20   21      ar
    25   21   22      ar
    26   23   24       1
    27   24   25      ar
    28   24   26      ar
    29   24   27       1
    30   27   28       1
    31   28   29       1
    32   29   30       1
    33   29   31       1
    34   30   35       1
    35   31   32       1
    36   31   33       1
    37   33   34       1
    38   33   35       1
    39   35   36       1
    40   36   37      ar
    41   36   44      ar
    42   37   38      ar
    43   38   39       1
    44   38   42      ar
    45   39   40       2
    46   39   41      am
    47   42   43      ar
    48   43   44      ar
    49   44   70       1
    50    5   45       1
    51    5   46       1
    52    6   47       1
    53    8   48       1
    54    9   49       1
    55   10   50       1
    56   11   51       1
    57   12   52       1
    58   14   53       1
    59   18   54       1
    60   18   55       1
    61   20   56       1
    62   43   69       1
    63   28   57       1
    64   28   58       1
    65   29   59       1
    66   31   60       1
    67   32   61       1
    68   33   62       1
    69   34   63       1
    70   35   64       1
    71   37   65       1
    72   41   66       1
    73   41   67       1
    74   42   68       1
@<TRIPOS>SUBSTRUCTURE
     1 NAD335      1 GROUP             4 C     NAD     0 **** NAD C 335
