@<TRIPOS>MOLECULE
3sf6_FDA_1_ligand
   84    89     1     0     0
SMALL
NO_CHARGES


@<TRIPOS>ATOM
     1 PA          40.8550    -3.1270    23.1330 P.3          1 FDA400   0.0000
     2 O1A         40.7040    -4.0550    22.0050 O.co2        1 FDA400   0.0000
     3 O2A         39.9160    -3.1440    24.2670 O.co2        1 FDA400  -1.0000
     4 O5B         42.3480    -3.4280    23.6550 O.3          1 FDA400   0.0000
     5 C5B         42.7950    -2.8670    24.9080 C.3          1 FDA400   0.0000
     6 C4B         44.2660    -3.2070    25.1210 C.3          1 FDA400   0.0000
     7 O4B         44.3440    -4.6500    25.2480 O.3          1 FDA400   0.0000
     8 C3B         45.1700    -2.8380    23.9640 C.3          1 FDA400   0.0000
     9 O3B         46.4810    -2.4980    24.4690 O.3          1 FDA400   0.0000
    10 C2B         45.2230    -4.1360    23.1690 C.3          1 FDA400   0.0000
    11 O2B         46.3640    -4.1730    22.2920 O.3          1 FDA400   0.0000
    12 C1B         45.2180    -5.2090    24.2660 C.3          1 FDA400   0.0000
    13 N9A         44.6910    -6.4880    23.7700 N.pl3        1 FDA400   0.0000
    14 C8A         43.4360    -6.7130    23.2750 C.2          1 FDA400   0.0000
    15 N7A         43.3330    -7.9880    22.8720 N.2          1 FDA400   0.0000
    16 C5A         44.5510    -8.5760    23.1020 C.ar         1 FDA400   0.0000
    17 C6A         45.0770    -9.8440    22.8880 C.ar         1 FDA400   0.0000
    18 N6A         44.3410   -10.8460    22.3490 N.pl3        1 FDA400   0.0000
    19 N1A         46.3590   -10.0690    23.2630 N.ar         1 FDA400   0.0000
    20 C2A         47.1180    -9.1000    23.7770 C.ar         1 FDA400   0.0000
    21 N3A         46.6620    -7.8810    23.9880 N.ar         1 FDA400   0.0000
    22 C4A         45.3850    -7.6010    23.6490 C.ar         1 FDA400   0.0000
    23 N1          37.3680     2.5180    14.7200 N.2          1 FDA400   0.0000
    24 C2          36.5150     2.5080    13.6580 C.2          1 FDA400   0.0000
    25 O2          35.8050     1.4940    13.4530 O.2          1 FDA400   0.0000
    26 N3          36.4670     3.5730    12.8290 N.pl3        1 FDA400   0.0000
    27 C4          37.1820     4.6910    13.0110 C.2          1 FDA400   0.0000
    28 O4          37.0650     5.6930    12.2550 O.2          1 FDA400   0.0000
    29 C4X         38.0880     4.7110    14.0930 C.2          1 FDA400   0.0000
    30 N5          38.8050     5.8210    14.3770 N.2          1 FDA400   0.0000
    31 C5X         39.3940     5.9650    15.6180 C.ar         1 FDA400   0.0000
    32 C6          39.8490     7.2020    16.0580 C.ar         1 FDA400   0.0000
    33 C7          40.4700     7.3700    17.2800 C.ar         1 FDA400   0.0000
    34 C7M         40.8750     8.7680    17.7610 C.3          1 FDA400   0.0000
    35 C8          40.6680     6.2450    18.0710 C.ar         1 FDA400   0.0000
    36 C8M         41.3700     6.4380    19.4210 C.3          1 FDA400   0.0000
    37 C9          40.2220     5.0060    17.6670 C.ar         1 FDA400   0.0000
    38 C9A         39.5750     4.8530    16.4230 C.ar         1 FDA400   0.0000
    39 N10         39.0440     3.6220    16.0240 N.pl3        1 FDA400   0.0000
    40 C10         38.1380     3.6100    14.9410 C.2          1 FDA400   0.0000
    41 C1'         38.9120     2.5300    16.9970 C.3          1 FDA400   0.0000
    42 C2'         40.2200     1.7260    17.0160 C.3          1 FDA400   0.0000
    43 O2'         40.3060     0.8620    15.8620 O.3          1 FDA400   0.0000
    44 C3'         40.2500     0.8890    18.2850 C.3          1 FDA400   0.0000
    45 O3'         40.5260     1.7760    19.3680 O.3          1 FDA400   0.0000
    46 C4'         41.3300    -0.1950    18.2620 C.3          1 FDA400   0.0000
    47 O4'         40.9650    -1.2560    17.3570 O.3          1 FDA400   0.0000
    48 C5'         41.6020    -0.7840    19.6470 C.3          1 FDA400   0.0000
    49 O5'         40.3720    -1.2650    20.2010 O.3          1 FDA400   0.0000
    50 P           39.9950    -0.8310    21.6880 P.3          1 FDA400   0.0000
    51 O1P         40.2850     0.6000    21.8600 O.co2        1 FDA400   0.0000
    52 O2P         38.6250    -1.3180    21.9640 O.co2        1 FDA400  -1.0000
    53 O3P         41.0470    -1.6110    22.6260 O.3          1 FDA400   0.0000
    54 H5B1        42.2528    -3.2489    25.6565 H            1 FDA400   0.0000
    55 H5B2        42.6820    -1.8736    24.8876 H            1 FDA400   0.0000
    56 H4B         44.5958    -2.7745    25.9602 H            1 FDA400   0.0000
    57 H3B         44.7829    -2.0926    23.4212 H            1 FDA400   0.0000
    58 H5          46.8647    -3.2829    24.9555 H            1 FDA400   0.0000
    59 H2B         44.3886    -4.2207    22.6244 H            1 FDA400   0.0000
    60 H7          47.1097    -3.6406    22.6926 H            1 FDA400   0.0000
    61 H1B         46.1365    -5.3303    24.6423 H            1 FDA400   0.0000
    62 H8A         42.7066    -6.0310    23.2217 H            1 FDA400   0.0000
    63 H6A1        44.7506   -11.7474    22.2083 H            1 FDA400   0.0000
    64 H6A2        43.3883   -10.6841    22.0919 H            1 FDA400   0.0000
    65 H2A         48.0682    -9.3057    24.0110 H            1 FDA400   0.0000
    66 H13         35.8630     3.5242    12.0335 H            1 FDA400   0.0000
    67 H14         39.7222     7.9996    15.4683 H            1 FDA400   0.0000
    68 H7M1        41.3084     8.6988    18.6595 H            1 FDA400   0.0000
    69 H7M2        41.5189     9.1708    17.1105 H            1 FDA400   0.0000
    70 H7M3        40.0619     9.3464    17.8268 H            1 FDA400   0.0000
    71 H8M1        41.4480     5.5558    19.8853 H            1 FDA400   0.0000
    72 H8M2        42.2829     6.8175    19.2707 H            1 FDA400   0.0000
    73 H8M3        40.8368     7.0666    19.9871 H            1 FDA400   0.0000
    74 H21         40.3575     4.2112    18.2585 H            1 FDA400   0.0000
    75 H1'1        38.1543     1.9335    16.7325 H            1 FDA400   0.0000
    76 H1'2        38.7366     2.9086    17.9058 H            1 FDA400   0.0000
    77 H2'         40.9963     2.3563    17.0165 H            1 FDA400   0.0000
    78 H25         40.8365     0.0469    16.0947 H            1 FDA400   0.0000
    79 H3'         39.3556     0.4638    18.4236 H            1 FDA400   0.0000
    80 H27         40.5536     1.2590    20.2235 H            1 FDA400   0.0000
    81 H4'         42.1774     0.2186    17.9291 H            1 FDA400   0.0000
    82 H29         40.1020    -1.6649    17.6536 H            1 FDA400   0.0000
    83 H5'1        41.9838    -0.0772    20.2425 H            1 FDA400   0.0000
    84 H5'2        42.2519    -1.5399    19.5678 H            1 FDA400   0.0000
@<TRIPOS>BOND
     1    1    2      ar
     2    1    3      ar
     3    1    4       1
     4    1   53       1
     5    4    5       1
     6    5    6       1
     7    6    7       1
     8    6    8       1
     9    7   12       1
    10    8    9       1
    11    8   10       1
    12   10   11       1
    13   10   12       1
    14   12   13       1
    15   13   14       1
    16   13   22       1
    17   14   15       2
    18   15   16       1
    19   16   17      ar
    20   16   22      ar
    21   17   18       1
    22   17   19      ar
    23   19   20      ar
    24   20   21      ar
    25   21   22      ar
    26   23   24       1
    27   23   40       2
    28   24   25       2
    29   24   26       1
    30   26   27       1
    31   27   28       2
    32   27   29       1
    33   29   30       2
    34   29   40       1
    35   30   31       1
    36   31   32      ar
    37   31   38      ar
    38   32   33      ar
    39   33   34       1
    40   33   35      ar
    41   35   36       1
    42   35   37      ar
    43   37   38      ar
    44   38   39       1
    45   39   40       1
    46   39   41       1
    47   41   42       1
    48   42   43       1
    49   42   44       1
    50   44   45       1
    51   44   46       1
    52   46   47       1
    53   46   48       1
    54   48   49       1
    55   49   50       1
    56   50   51      ar
    57   50   52      ar
    58   50   53       1
    59   48   84       1
    60    5   54       1
    61    5   55       1
    62    6   56       1
    63    8   57       1
    64    9   58       1
    65   10   59       1
    66   11   60       1
    67   12   61       1
    68   14   62       1
    69   18   63       1
    70   18   64       1
    71   20   65       1
    72   26   66       1
    73   32   67       1
    74   34   68       1
    75   34   69       1
    76   34   70       1
    77   36   71       1
    78   36   72       1
    79   36   73       1
    80   37   74       1
    81   41   75       1
    82   41   76       1
    83   42   77       1
    84   43   78       1
    85   44   79       1
    86   45   80       1
    87   46   81       1
    88   47   82       1
    89   48   83       1
@<TRIPOS>SUBSTRUCTURE
     1 FDA400      1 GROUP             4 A     FDA     0 **** FDA A 400
