@<TRIPOS>MOLECULE
3ts1_TYA_1_ligand
   59    62     1     0     0
SMALL
NO_CHARGES


@<TRIPOS>ATOM
     1 OPP        -12.3270    14.4590    -6.9880 O.3          1 TYA420   0.0000
     2 P          -13.2550    15.2530    -7.9460 P.3          1 TYA420   0.0000
     3 O1P        -12.6530    16.1560    -8.9500 O.co2        1 TYA420   0.0000
     4 O2P        -13.9680    14.4650    -8.9550 O.co2        1 TYA420  -1.0000
     5 O5'        -14.2600    16.0430    -7.0370 O.3          1 TYA420   0.0000
     6 C5'        -15.3610    16.7390    -7.5980 C.3          1 TYA420   0.0000
     7 C4'        -16.4410    16.7540    -6.4820 C.3          1 TYA420   0.0000
     8 O4'        -17.6790    16.6710    -7.2500 O.3          1 TYA420   0.0000
     9 C3'        -16.4330    15.5200    -5.5730 C.3          1 TYA420   0.0000
    10 O3'        -17.0530    15.7000    -4.3270 O.3          1 TYA420   0.0000
    11 C2'        -17.2380    14.4760    -6.3640 C.3          1 TYA420   0.0000
    12 O2'        -17.9190    13.5880    -5.4460 O.3          1 TYA420   0.0000
    13 C1'        -18.1670    15.3790    -7.1030 C.3          1 TYA420   0.0000
    14 N9         -18.9610    14.9300    -8.2110 N.pl3        1 TYA420   0.0000
    15 C8         -18.6640    14.7060    -9.5090 C.2          1 TYA420   0.0000
    16 N7         -19.7090    14.3040   -10.2390 N.2          1 TYA420   0.0000
    17 C5         -20.7410    14.2380    -9.3130 C.ar         1 TYA420   0.0000
    18 C6         -22.1130    13.9090    -9.4540 C.ar         1 TYA420   0.0000
    19 N6         -22.6990    13.5030   -10.5820 N.pl3        1 TYA420   0.0000
    20 N1         -22.8630    13.9860    -8.3190 N.ar         1 TYA420   0.0000
    21 C2         -22.2920    14.4240    -7.1590 C.ar         1 TYA420   0.0000
    22 N3         -21.0690    14.7640    -6.9540 N.ar         1 TYA420   0.0000
    23 C4         -20.3210    14.6550    -8.0850 C.ar         1 TYA420   0.0000
    24 NH2        -10.5240    13.6770    -4.9760 N.4          1 TYA420   1.0000
    25 CA         -11.5620    14.6850    -4.6540 C.3          1 TYA420   0.0000
    26 C          -12.7180    14.5020    -5.6000 C.3          1 TYA420   0.0000
    27 CB         -10.9440    16.0790    -4.7150 C.3          1 TYA420   0.0000
    28 CG         -10.3080    16.4210    -3.5070 C.ar         1 TYA420   0.0000
    29 CD1        -11.0520    16.4480    -2.3370 C.ar         1 TYA420   0.0000
    30 CD2         -8.9350    16.7430    -3.4530 C.ar         1 TYA420   0.0000
    31 CE1        -10.4560    16.8070    -1.1260 C.ar         1 TYA420   0.0000
    32 CE2         -8.3310    17.0590    -2.2300 C.ar         1 TYA420   0.0000
    33 CZ          -9.0950    17.1040    -1.0700 C.ar         1 TYA420   0.0000
    34 OH          -8.5840    17.4200     0.1420 O.3          1 TYA420   0.0000
    35 H5'1       -15.7009    16.2630    -8.4091 H            1 TYA420   0.0000
    36 H5'2       -15.0980    17.6717    -7.8446 H            1 TYA420   0.0000
    37 H4'        -16.4004    17.5987    -5.9483 H            1 TYA420   0.0000
    38 H3'        -15.4948    15.1992    -5.4430 H            1 TYA420   0.0000
    39 H5         -16.3782    16.0199    -3.6620 H            1 TYA420   0.0000
    40 H2'        -16.6511    13.9663    -6.9931 H            1 TYA420   0.0000
    41 H7         -17.6115    12.6491    -5.6006 H            1 TYA420   0.0000
    42 H1'        -18.8753    15.5243    -6.4122 H            1 TYA420   0.0000
    43 H9         -17.7472    14.8294    -9.8889 H            1 TYA420   0.0000
    44 H10        -23.6764    13.2917   -10.5897 H            1 TYA420   0.0000
    45 H11        -22.1608    13.4101   -11.4197 H            1 TYA420   0.0000
    46 H12        -22.9018    14.4886    -6.3690 H            1 TYA420   0.0000
    47 HH21        -9.6741    14.1415    -5.2247 H            1 TYA420   0.0000
    48 HH22       -10.3650    13.0956    -4.1780 H            1 TYA420   0.0000
    49 HA         -11.8853    14.5214    -3.7220 H            1 TYA420   0.0000
    50 H16        -13.1783    13.6433    -5.3744 H            1 TYA420   0.0000
    51 H17        -13.3533    15.2639    -5.4740 H            1 TYA420   0.0000
    52 HB1        -11.6660    16.7455    -4.9009 H            1 TYA420   0.0000
    53 HB2        -10.2703    16.1026    -5.4537 H            1 TYA420   0.0000
    54 HD1        -12.0226    16.2086    -2.3606 H            1 TYA420   0.0000
    55 HD2         -8.3910    16.7455    -4.2921 H            1 TYA420   0.0000
    56 HE1        -11.0089    16.8513    -0.2939 H            1 TYA420   0.0000
    57 HE2         -7.3506    17.2522    -2.1912 H            1 TYA420   0.0000
    58 HH          -7.6129    17.6407     0.2331 H            1 TYA420   0.0000
    59 HH23       -10.8327    13.1138    -5.7425 H            1 TYA420   0.0000
@<TRIPOS>BOND
     1    1    2       1
     2    1   26       1
     3    2    3      ar
     4    2    4      ar
     5    2    5       1
     6    5    6       1
     7    6    7       1
     8    7    8       1
     9    7    9       1
    10    8   13       1
    11    9   10       1
    12    9   11       1
    13   11   12       1
    14   11   13       1
    15   13   14       1
    16   14   15       1
    17   14   23       1
    18   15   16       2
    19   16   17       1
    20   17   18      ar
    21   17   23      ar
    22   18   19       1
    23   18   20      ar
    24   20   21      ar
    25   21   22      ar
    26   22   23      ar
    27   24   25       1
    28   25   26       1
    29   25   27       1
    30   27   28       1
    31   28   29      ar
    32   28   30      ar
    33   29   31      ar
    34   30   32      ar
    35   31   33      ar
    36   32   33      ar
    37   33   34       1
    38   34   58       1
    39    6   35       1
    40    6   36       1
    41    7   37       1
    42    9   38       1
    43   10   39       1
    44   11   40       1
    45   12   41       1
    46   13   42       1
    47   15   43       1
    48   19   44       1
    49   19   45       1
    50   21   46       1
    51   24   47       1
    52   24   48       1
    53   25   49       1
    54   26   50       1
    55   26   51       1
    56   27   52       1
    57   27   53       1
    58   29   54       1
    59   30   55       1
    60   31   56       1
    61   32   57       1
    62   24   59       1
@<TRIPOS>SUBSTRUCTURE
     1 TYA420      1 GROUP             4 A     TYA     0 **** TYA A 420
