@<TRIPOS>MOLECULE
1qju_W01_1_ligand
   45    47     1     0     0
SMALL
NO_CHARGES


@<TRIPOS>ATOM
     1 O1         130.0670  -124.5310    12.0490 O.2          1 W017001   0.0000
     2 N2         128.9070  -124.8190    12.8390 N.2          1 W017001   0.0000
     3 C3         128.2560  -123.6960    12.9850 C.2          1 W017001   0.0000
     4 CM3        126.9950  -123.6470    13.7660 C.3          1 W017001   0.0000
     5 C4         128.9290  -122.6600    12.3220 C.2          1 W017001   0.0000
     6 C5         130.0280  -123.2130    11.7660 C.2          1 W017001   0.0000
     7 C1C        131.0120  -122.7550    10.7680 C.3          1 W017001   0.0000
     8 C2C        132.4290  -122.8860    11.2850 C.3          1 W017001   0.0000
     9 C3C        133.4120  -122.3870    10.2520 C.3          1 W017001   0.0000
    10 O1B        133.8300  -123.5460     9.6100 O.3          1 W017001   0.0000
    11 C1B        134.8020  -123.4680     8.6980 C.ar         1 W017001   0.0000
    12 C2B        136.1740  -123.6630     9.0730 C.ar         1 W017001   0.0000
    13 CM2        136.5270  -124.0070    10.4750 C.3          1 W017001   0.0000
    14 C3B        137.2330  -123.5380     8.1250 C.ar         1 W017001   0.0000
    15 C4B        136.9230  -123.2050     6.7760 C.ar         1 W017001   0.0000
    16 C5B        135.5720  -123.0130     6.3780 C.ar         1 W017001   0.0000
    17 C6B        134.5280  -123.1470     7.3260 C.ar         1 W017001   0.0000
    18 CM6        133.1220  -122.9780     6.8290 C.3          1 W017001   0.0000
    19 C2A        137.9910  -123.0220     5.8540 C.2          1 W017001   0.0000
    20 N1A        139.2830  -123.3720     6.1120 N.2          1 W017001   0.0000
    21 N3A        137.8350  -122.4580     4.6540 N.2          1 W017001   0.0000
    22 N4A        139.0760  -122.4540     4.1810 N.pl3        1 W017001   0.0000
    23 CM4        139.4380  -121.8810     2.8760 C.3          1 W017001   0.0000
    24 N5A        139.9370  -122.9940     5.0200 N.2          1 W017001   0.0000
    25 HM31       126.6411  -122.7117    13.7693 H            1 W017001   0.0000
    26 HM32       126.3210  -124.2570    13.3494 H            1 W017001   0.0000
    27 HM33       127.1733  -123.9392    14.7056 H            1 W017001   0.0000
    28 H4         128.6501  -121.7010    12.2710 H            1 W017001   0.0000
    29 H1C1       130.8326  -121.7954    10.5514 H            1 W017001   0.0000
    30 H1C2       130.9159  -123.3072     9.9398 H            1 W017001   0.0000
    31 H2C1       132.6198  -123.8471    11.4848 H            1 W017001   0.0000
    32 H2C2       132.5264  -122.3460    12.1210 H            1 W017001   0.0000
    33 H3C1       134.1830  -121.9228    10.6881 H            1 W017001   0.0000
    34 H3C2       132.9678  -121.7632     9.6088 H            1 W017001   0.0000
    35 HM21       137.5190  -124.1049    10.5545 H            1 W017001   0.0000
    36 HM22       136.2138  -123.2797    11.0857 H            1 W017001   0.0000
    37 HM23       136.0857  -124.8679    10.7282 H            1 W017001   0.0000
    38 H3B        138.1821  -123.6826     8.4049 H            1 W017001   0.0000
    39 H5B        135.3585  -122.7833     5.4285 H            1 W017001   0.0000
    40 HM61       133.1374  -122.7583     5.8536 H            1 W017001   0.0000
    41 HM62       132.6138  -123.8274     6.9714 H            1 W017001   0.0000
    42 HM63       132.6780  -122.2358     7.3309 H            1 W017001   0.0000
    43 HM41       140.4209  -121.9879     2.7261 H            1 W017001   0.0000
    44 HM42       138.9369  -122.3561     2.1527 H            1 W017001   0.0000
    45 HM43       139.2024  -120.9093     2.8617 H            1 W017001   0.0000
@<TRIPOS>BOND
     1    1    2       1
     2    1    6       1
     3    2    3       2
     4    3    4       1
     5    3    5       1
     6    5    6       2
     7    6    7       1
     8    7    8       1
     9    8    9       1
    10    9   10       1
    11   10   11       1
    12   11   12      ar
    13   11   17      ar
    14   12   13       1
    15   12   14      ar
    16   14   15      ar
    17   15   16      ar
    18   15   19       1
    19   16   17      ar
    20   17   18       1
    21   19   20       1
    22   19   21       2
    23   20   24       2
    24   21   22       1
    25   22   23       1
    26   22   24       1
    27    4   25       1
    28    4   26       1
    29    4   27       1
    30    5   28       1
    31    7   29       1
    32    7   30       1
    33    8   31       1
    34    8   32       1
    35    9   33       1
    36    9   34       1
    37   13   35       1
    38   13   36       1
    39   13   37       1
    40   14   38       1
    41   16   39       1
    42   18   40       1
    43   18   41       1
    44   18   42       1
    45   23   43       1
    46   23   44       1
    47   23   45       1
@<TRIPOS>SUBSTRUCTURE
     1 W017001     1 GROUP             4 1     W01     0 **** W01 17001
