@<TRIPOS>MOLECULE
4kto_FAD_1_ligand
   84    89     1     0     0
SMALL
NO_CHARGES


@<TRIPOS>ATOM
     1 PA          75.4960    76.0200   104.5190 P.3          1 FAD401   0.0000
     2 O1A         76.7100    76.3370   103.6750 O.co2        1 FAD401   0.0000
     3 O2A         74.8340    77.0920   105.3540 O.co2        1 FAD401  -1.0000
     4 O5B         74.3850    75.3450   103.5710 O.3          1 FAD401   0.0000
     5 C5B         73.0990    75.9230   103.3350 C.3          1 FAD401   0.0000
     6 C4B         72.5140    75.2260   102.1140 C.3          1 FAD401   0.0000
     7 O4B         72.8210    75.9980   100.9510 O.3          1 FAD401   0.0000
     8 C3B         73.1440    73.8530   101.9200 C.3          1 FAD401   0.0000
     9 O3B         72.1310    72.9040   101.5710 O.3          1 FAD401   0.0000
    10 C2B         74.1030    74.0040   100.7570 C.3          1 FAD401   0.0000
    11 O2B         74.0840    72.8000    99.9850 O.3          1 FAD401   0.0000
    12 C1B         73.5560    75.2150   100.0030 C.3          1 FAD401   0.0000
    13 N9A         74.5970    76.0680    99.3680 N.pl3        1 FAD401   0.0000
    14 C8A         75.5430    76.7700   100.0200 C.2          1 FAD401   0.0000
    15 N7A         76.3300    77.4510    99.1490 N.2          1 FAD401   0.0000
    16 C5A         75.8830    77.1880    97.9040 C.ar         1 FAD401   0.0000
    17 C6A         76.2650    77.5770    96.5250 C.ar         1 FAD401   0.0000
    18 N6A         77.3130    78.4140    96.3110 N.pl3        1 FAD401   0.0000
    19 N1A         75.5320    77.0790    95.4990 N.ar         1 FAD401   0.0000
    20 C2A         74.4920    76.2520    95.7040 C.ar         1 FAD401   0.0000
    21 N3A         74.0940    75.8580    96.9280 N.ar         1 FAD401   0.0000
    22 C4A         74.7370    76.2780    98.0510 C.ar         1 FAD401   0.0000
    23 N1          84.3100    71.4530   109.6180 N.2          1 FAD401   0.0000
    24 C2          85.6390    71.4420   109.9080 C.2          1 FAD401   0.0000
    25 O2          86.3350    72.3810   109.4780 O.2          1 FAD401   0.0000
    26 N3          86.2410    70.4740   110.6330 N.pl3        1 FAD401   0.0000
    27 C4          85.5540    69.4370   111.1280 C.2          1 FAD401   0.0000
    28 O4          86.0870    68.5330   111.8040 O.2          1 FAD401   0.0000
    29 C4X         84.1090    69.3740   110.8500 C.2          1 FAD401   0.0000
    30 N5          83.3860    68.3540   111.3340 N.2          1 FAD401   0.0000
    31 C5X         82.0690    68.3040   111.0830 C.ar         1 FAD401   0.0000
    32 C6          81.3510    67.2430   111.5880 C.ar         1 FAD401   0.0000
    33 C7          79.9930    67.1340   111.3690 C.ar         1 FAD401   0.0000
    34 C7M         79.3340    65.9370   111.9860 C.3          1 FAD401   0.0000
    35 C8          79.2920    68.1830   110.5660 C.ar         1 FAD401   0.0000
    36 C8M         77.8300    68.2060   110.2220 C.3          1 FAD401   0.0000
    37 C9          80.0150    69.2430   110.0820 C.ar         1 FAD401   0.0000
    38 C9A         81.3790    69.3590   110.2850 C.ar         1 FAD401   0.0000
    39 N10         82.1130    70.4510   109.7590 N.pl3        1 FAD401   0.0000
    40 C10         83.4980    70.4680   110.0470 C.2          1 FAD401   0.0000
    41 C1'         81.4820    71.5330   108.9650 C.3          1 FAD401   0.0000
    42 C2'         80.6920    71.0930   107.7240 C.3          1 FAD401   0.0000
    43 O2'         81.5460    70.8510   106.5990 O.3          1 FAD401   0.0000
    44 C3'         79.6010    72.1050   107.3790 C.3          1 FAD401   0.0000
    45 O3'         78.4710    72.0140   108.2660 O.3          1 FAD401   0.0000
    46 C4'         79.1350    71.8740   105.9490 C.3          1 FAD401   0.0000
    47 O4'         80.2270    72.1240   105.0500 O.3          1 FAD401   0.0000
    48 C5'         77.9430    72.7770   105.6350 C.3          1 FAD401   0.0000
    49 O5'         78.1180    74.0480   106.2660 O.3          1 FAD401   0.0000
    50 P           76.8480    74.9300   106.7260 P.3          1 FAD401   0.0000
    51 O1P         77.2720    76.3760   106.8170 O.co2        1 FAD401   0.0000
    52 O2P         76.1930    74.2610   107.9100 O.co2        1 FAD401  -1.0000
    53 O3P         75.8590    74.7710   105.4680 O.3          1 FAD401   0.0000
    54 H5B1        73.1901    76.9033   103.1599 H            1 FAD401   0.0000
    55 H5B2        72.5074    75.7797   104.1284 H            1 FAD401   0.0000
    56 H4B         71.5230    75.1366   102.2133 H            1 FAD401   0.0000
    57 H3B         73.6299    73.5658   102.7455 H            1 FAD401   0.0000
    58 H5          71.7596    72.4918   102.4029 H            1 FAD401   0.0000
    59 H2B         75.0275    74.1896   101.0899 H            1 FAD401   0.0000
    60 H7          73.4449    72.1502   100.3965 H            1 FAD401   0.0000
    61 H1B         72.9271    74.8949    99.2945 H            1 FAD401   0.0000
    62 H8A         75.6513    76.7873   101.0140 H            1 FAD401   0.0000
    63 H6A1        77.5646    78.6718    95.3781 H            1 FAD401   0.0000
    64 H6A2        77.8330    78.7725    97.0863 H            1 FAD401   0.0000
    65 H2A         73.9897    75.9131    94.9085 H            1 FAD401   0.0000
    66 H13         87.2244    70.5335   110.8042 H            1 FAD401   0.0000
    67 H14         81.8212    66.5403   112.1219 H            1 FAD401   0.0000
    68 H7M1        78.3571    65.9472   111.7724 H            1 FAD401   0.0000
    69 H7M2        79.7467    65.1032   111.6192 H            1 FAD401   0.0000
    70 H7M3        79.4586    65.9621   112.9779 H            1 FAD401   0.0000
    71 H8M1        77.6287    69.0196   109.6765 H            1 FAD401   0.0000
    72 H8M2        77.5981    67.3870   109.6972 H            1 FAD401   0.0000
    73 H8M3        77.2899    68.2268   111.0633 H            1 FAD401   0.0000
    74 H21         79.5408    69.9558   109.5652 H            1 FAD401   0.0000
    75 H1'1        82.2072    72.1509   108.6614 H            1 FAD401   0.0000
    76 H1'2        80.8541    72.0263   109.5670 H            1 FAD401   0.0000
    77 H2'         80.2396    70.2297   107.9476 H            1 FAD401   0.0000
    78 H25         81.2908    71.4616   105.8493 H            1 FAD401   0.0000
    79 H3'         79.9861    73.0255   107.4451 H            1 FAD401   0.0000
    80 H27         77.7852    72.6925   108.0028 H            1 FAD401   0.0000
    81 H4'         78.8506    70.9201   105.8530 H            1 FAD401   0.0000
    82 H29         79.9250    71.9733   104.1087 H            1 FAD401   0.0000
    83 H5'1        77.1049    72.3504   105.9748 H            1 FAD401   0.0000
    84 H5'2        77.8747    72.9043   104.6455 H            1 FAD401   0.0000
@<TRIPOS>BOND
     1    1    2      ar
     2    1    3      ar
     3    1    4       1
     4    1   53       1
     5    4    5       1
     6    5    6       1
     7    6    7       1
     8    6    8       1
     9    7   12       1
    10    8    9       1
    11    8   10       1
    12   10   11       1
    13   10   12       1
    14   12   13       1
    15   13   14       1
    16   13   22       1
    17   14   15       2
    18   15   16       1
    19   16   17      ar
    20   16   22      ar
    21   17   18       1
    22   17   19      ar
    23   19   20      ar
    24   20   21      ar
    25   21   22      ar
    26   23   24       1
    27   23   40       2
    28   24   25       2
    29   24   26       1
    30   26   27       1
    31   27   28       2
    32   27   29       1
    33   29   30       2
    34   29   40       1
    35   30   31       1
    36   31   32      ar
    37   31   38      ar
    38   32   33      ar
    39   33   34       1
    40   33   35      ar
    41   35   36       1
    42   35   37      ar
    43   37   38      ar
    44   38   39       1
    45   39   40       1
    46   39   41       1
    47   41   42       1
    48   42   43       1
    49   42   44       1
    50   44   45       1
    51   44   46       1
    52   46   47       1
    53   46   48       1
    54   48   49       1
    55   49   50       1
    56   50   51      ar
    57   50   52      ar
    58   50   53       1
    59   48   84       1
    60    5   54       1
    61    5   55       1
    62    6   56       1
    63    8   57       1
    64    9   58       1
    65   10   59       1
    66   11   60       1
    67   12   61       1
    68   14   62       1
    69   18   63       1
    70   18   64       1
    71   20   65       1
    72   26   66       1
    73   32   67       1
    74   34   68       1
    75   34   69       1
    76   34   70       1
    77   36   71       1
    78   36   72       1
    79   36   73       1
    80   37   74       1
    81   41   75       1
    82   41   76       1
    83   42   77       1
    84   43   78       1
    85   44   79       1
    86   45   80       1
    87   46   81       1
    88   47   82       1
    89   48   83       1
@<TRIPOS>SUBSTRUCTURE
     1 FAD401      1 GROUP             4 A     FAD     0 **** FAD A 401
