@<TRIPOS>MOLECULE
2j2p_SC2_11_ligand
   18    17     1     0     0
SMALL
NO_CHARGES


@<TRIPOS>ATOM
     1 C           -2.9770    16.1010   -17.3990 C.2          1 SC21289   0.0000
     2 CB          -4.4610    15.7170   -15.3950 C.3          1 SC21289   0.0000
     3 CT          -3.3300    12.8070   -17.1210 C.2          1 SC21289   0.0000
     4 CA          -3.9080    15.1380   -16.6990 C.3          1 SC21289   0.0000
     5 N           -3.2110    13.9050   -16.3880 N.am         1 SC21289   0.0000
     6 O           -3.3620    17.2610   -17.6940 O.co2        1 SC21289   0.0000
     7 OXT         -1.8270    15.6940   -17.6770 O.co2        1 SC21289  -1.0000
     8 OT          -4.2890    12.0740   -16.9920 O.2          1 SC21289   0.0000
     9 CM          -2.2240    12.5170   -18.0980 C.3          1 SC21289   0.0000
    10 SG          -5.9800    16.7090   -15.5450 S.3          1 SC21289   0.0000
    11 HB1         -3.7535    16.2991   -14.9941 H            1 SC21289   0.0000
    12 HB2         -4.6535    14.9536   -14.7784 H            1 SC21289   0.0000
    13 HA          -4.6731    14.9300   -17.3084 H            1 SC21289   0.0000
    14 H4          -2.6146    13.8821   -15.5856 H            1 SC21289   0.0000
    15 HM1         -2.4260    11.6691   -18.5882 H            1 SC21289   0.0000
    16 HM2         -2.1504    13.2704   -18.7515 H            1 SC21289   0.0000
    17 HM3         -1.3601    12.4187   -17.6040 H            1 SC21289   0.0000
    18 HG          -6.2543    17.0374   -14.6412 H            1 SC21289   0.0000
@<TRIPOS>BOND
     1    1    4       1
     2    1    6      ar
     3    1    7      ar
     4    2    4       1
     5    2   10       1
     6    3    5      am
     7    3    8       2
     8    3    9       1
     9    4    5       1
    10    2   11       1
    11    2   12       1
    12    4   13       1
    13    5   14       1
    14   10   18       1
    15    9   15       1
    16    9   16       1
    17    9   17       1
@<TRIPOS>SUBSTRUCTURE
     1 SC21289     1 GROUP             4 F     SC2     0 **** SC2 F1289
