@<TRIPOS>MOLECULE
5dv2_C5P_1_ligand
   33    34     1     0     0
SMALL
NO_CHARGES


@<TRIPOS>ATOM
     1 O3P        -34.0110    12.6820    11.5870 O.co2        1 C5P601   0.0000
     2 P          -32.5170    12.6130    11.3330 P.3          1 C5P601   0.0000
     3 O1P        -32.1460    13.6380    10.2510 O.co2        1 C5P601  -1.0000
     4 O2P        -31.9200    11.2540    10.9930 O.co2        1 C5P601  -1.0000
     5 O5'        -31.8100    13.0550    12.6900 O.3          1 C5P601   0.0000
     6 C5'        -32.4840    12.9020    13.9270 C.3          1 C5P601   0.0000
     7 C4'        -31.6500    13.3800    15.0870 C.3          1 C5P601   0.0000
     8 O4'        -31.7900    14.8200    15.2320 O.3          1 C5P601   0.0000
     9 C3'        -32.0510    12.8270    16.4470 C.3          1 C5P601   0.0000
    10 O3'        -31.5140    11.5370    16.6960 O.3          1 C5P601   0.0000
    11 C2'        -31.5420    13.8900    17.4100 C.3          1 C5P601   0.0000
    12 O2'        -30.1510    13.7090    17.6430 O.3          1 C5P601   0.0000
    13 C1'        -31.7490    15.1730    16.5940 C.3          1 C5P601   0.0000
    14 N1         -33.0040    15.8850    16.9490 N.pl3        1 C5P601   0.0000
    15 C2         -32.9920    16.6390    18.2130 C.2          1 C5P601   0.0000
    16 N3         -34.1860    17.3890    18.6540 N.2          1 C5P601   0.0000
    17 C4         -35.3500    17.4070    17.8740 C.2          1 C5P601   0.0000
    18 C5         -35.3800    16.6500    16.5940 C.2          1 C5P601   0.0000
    19 C6         -34.1870    15.8900    16.1410 C.2          1 C5P601   0.0000
    20 O2         -31.9800    16.6260    18.8940 O.2          1 C5P601   0.0000
    21 N4         -36.4870    18.1730    18.3630 N.pl3        1 C5P601   0.0000
    22 H5'1       -32.6982    11.9344    14.0604 H            1 C5P601   0.0000
    23 H5'2       -33.3325    13.4306    13.8999 H            1 C5P601   0.0000
    24 H4'        -30.6901    13.1597    14.9135 H            1 C5P601   0.0000
    25 H3'        -33.0485    12.7839    16.5028 H            1 C5P601   0.0000
    26 H5         -32.2604    10.8879    16.8428 H            1 C5P601   0.0000
    27 H2'        -32.0645    13.9018    18.2625 H            1 C5P601   0.0000
    28 H7         -29.8250    14.4110    18.2762 H            1 C5P601   0.0000
    29 H1'        -30.9733    15.7850    16.7480 H            1 C5P601   0.0000
    30 H9         -36.2089    16.6528    16.0347 H            1 C5P601   0.0000
    31 H10        -34.2094    15.3853    15.2780 H            1 C5P601   0.0000
    32 H11        -37.3330    18.2070    17.8310 H            1 C5P601   0.0000
    33 H12        -36.4221    18.6653    19.2310 H            1 C5P601   0.0000
@<TRIPOS>BOND
     1    1    2      ar
     2    2    3      ar
     3    2    4      ar
     4    2    5       1
     5    5    6       1
     6    6    7       1
     7    7    8       1
     8    7    9       1
     9    8   13       1
    10    9   10       1
    11    9   11       1
    12   11   12       1
    13   11   13       1
    14   13   14       1
    15   14   15       1
    16   14   19       1
    17   15   16       1
    18   15   20       2
    19   16   17       2
    20   17   18       1
    21   17   21       1
    22   18   19       2
    23   21   33       1
    24   21   32       1
    25    6   22       1
    26    6   23       1
    27    7   24       1
    28    9   25       1
    29   10   26       1
    30   11   27       1
    31   12   28       1
    32   13   29       1
    33   18   30       1
    34   19   31       1
@<TRIPOS>SUBSTRUCTURE
     1 C5P601      1 GROUP             4 A     C5P     0 **** C5P A 601
