@<TRIPOS>MOLECULE
1ve7_4NP_2_ligand
   18    18     1     0     0
SMALL
NO_CHARGES


@<TRIPOS>ATOM
     1 P           51.2570    90.2270    31.7910 P.3          1 4NP1701   0.0000
     2 O1          50.6770    91.2020    32.9030 O.3          1 4NP1701   0.0000
     3 O2          52.2300    89.5330    32.4930 O.co2        1 4NP1701   0.0000
     4 O3          51.9020    91.0040    30.8220 O.co2        1 4NP1701  -1.0000
     5 O4          50.0190    89.3110    31.1770 O.co2        1 4NP1701  -1.0000
     6 C1          49.9630    90.8440    34.0630 C.ar         1 4NP1701   0.0000
     7 C2          50.6810    90.4010    35.2060 C.ar         1 4NP1701   0.0000
     8 C3          50.0340    90.0320    36.4020 C.ar         1 4NP1701   0.0000
     9 C4          48.6090    90.0870    36.4590 C.ar         1 4NP1701   0.0000
    10 C5          47.8730    90.5360    35.3160 C.ar         1 4NP1701   0.0000
    11 C6          48.5340    90.9050    34.1120 C.ar         1 4NP1701   0.0000
    12 N           47.8960    89.7230    37.6640 N.2          1 4NP1701   1.0000
    13 O5          48.5270    89.3520    38.6170 O.co2        1 4NP1701   0.0000
    14 O6          46.7690    89.7790    37.7020 O.co2        1 4NP1701  -1.0000
    15 H1          51.6786    90.3494    35.1602 H            1 4NP1701   0.0000
    16 H2          50.5640    89.7367    37.1970 H            1 4NP1701   0.0000
    17 H3          46.8757    90.5912    35.3651 H            1 4NP1701   0.0000
    18 H4          48.0096    91.2018    33.3139 H            1 4NP1701   0.0000
@<TRIPOS>BOND
     1    1    2       1
     2    1    3      ar
     3    1    4      ar
     4    1    5      ar
     5    2    6       1
     6    6    7      ar
     7    6   11      ar
     8    7    8      ar
     9    8    9      ar
    10    9   10      ar
    11    9   12       1
    12   10   11      ar
    13   12   13      ar
    14   12   14      ar
    15   11   18       1
    16   10   17       1
    17    7   15       1
    18    8   16       1
@<TRIPOS>SUBSTRUCTURE
     1 4NP1701     1 GROUP             4 B     4NP     0 **** 4NP B1701
