@<TRIPOS>MOLECULE
4jb1_FAD_1_ligand
   84    89     1     0     0
SMALL
NO_CHARGES


@<TRIPOS>ATOM
     1 PA          26.2440   -24.8750   -11.6300 P.3          1 FAD401   0.0000
     2 O1A         25.3560   -23.6910   -11.4940 O.co2        1 FAD401   0.0000
     3 O2A         25.7090   -26.2920   -11.5490 O.co2        1 FAD401  -1.0000
     4 O5B         27.6670   -24.6280   -10.8700 O.3          1 FAD401   0.0000
     5 C5B         28.7170   -25.5980   -10.9480 C.3          1 FAD401   0.0000
     6 C4B         29.9090   -25.1820   -10.1440 C.3          1 FAD401   0.0000
     7 O4B         30.5150   -23.9730   -10.7070 O.3          1 FAD401   0.0000
     8 C3B         29.4160   -24.7780    -8.7420 C.3          1 FAD401   0.0000
     9 O3B         30.4670   -25.1180    -7.9100 O.3          1 FAD401   0.0000
    10 C2B         29.2900   -23.2790    -8.7640 C.3          1 FAD401   0.0000
    11 O2B         29.5450   -22.7040    -7.4860 O.3          1 FAD401   0.0000
    12 C1B         30.3820   -22.8970    -9.7500 C.3          1 FAD401   0.0000
    13 N9A         30.1090   -21.6690   -10.5440 N.pl3        1 FAD401   0.0000
    14 C8A         29.0610   -21.5060   -11.3620 C.2          1 FAD401   0.0000
    15 N7A         29.1320   -20.3220   -11.9520 N.2          1 FAD401   0.0000
    16 C5A         30.2710   -19.7530   -11.4840 C.ar         1 FAD401   0.0000
    17 C6A         30.9470   -18.5230   -11.7140 C.ar         1 FAD401   0.0000
    18 N6A         30.3940   -17.6570   -12.4980 N.pl3        1 FAD401   0.0000
    19 N1A         32.0970   -18.2770   -11.0970 N.ar         1 FAD401   0.0000
    20 C2A         32.5990   -19.1550   -10.1980 C.ar         1 FAD401   0.0000
    21 N3A         31.9980   -20.3480    -9.9480 N.ar         1 FAD401   0.0000
    22 C4A         30.8870   -20.6370   -10.5690 C.ar         1 FAD401   0.0000
    23 N1          29.0040   -31.3460   -18.6260 N.2          1 FAD401   0.0000
    24 C2          29.9340   -31.5660   -19.5650 C.2          1 FAD401   0.0000
    25 O2          31.1010   -31.1590   -19.3260 O.2          1 FAD401   0.0000
    26 N3          29.6070   -32.1910   -20.7290 N.pl3        1 FAD401   0.0000
    27 C4          28.3800   -32.6160   -21.0210 C.2          1 FAD401   0.0000
    28 O4          28.1160   -33.2140   -22.0860 O.2          1 FAD401   0.0000
    29 C4X         27.3330   -32.4110   -20.0090 C.2          1 FAD401   0.0000
    30 N5          26.1290   -32.8870   -20.1770 N.2          1 FAD401   0.0000
    31 C5X         25.1370   -32.6440   -19.2940 C.ar         1 FAD401   0.0000
    32 C6          23.8070   -33.1090   -19.5140 C.ar         1 FAD401   0.0000
    33 C7          22.8080   -32.9290   -18.5310 C.ar         1 FAD401   0.0000
    34 C7M         21.3710   -33.3670   -18.7300 C.3          1 FAD401   0.0000
    35 C8          23.1340   -32.2330   -17.2630 C.ar         1 FAD401   0.0000
    36 C8M         22.0480   -31.9660   -16.2230 C.3          1 FAD401   0.0000
    37 C9          24.4570   -31.7630   -17.0560 C.ar         1 FAD401   0.0000
    38 C9A         25.4780   -31.9910   -18.0090 C.ar         1 FAD401   0.0000
    39 N10         26.8180   -31.5500   -17.7940 N.pl3        1 FAD401   0.0000
    40 C10         27.7450   -31.7670   -18.7700 C.2          1 FAD401   0.0000
    41 C1'         27.1970   -30.8570   -16.5830 C.3          1 FAD401   0.0000
    42 C2'         26.8890   -29.3660   -16.5890 C.3          1 FAD401   0.0000
    43 O2'         25.9500   -28.9500   -17.5710 O.3          1 FAD401   0.0000
    44 C3'         28.1740   -28.5210   -16.8040 C.3          1 FAD401   0.0000
    45 O3'         29.0520   -28.9710   -15.8060 O.3          1 FAD401   0.0000
    46 C4'         27.9590   -27.0160   -16.6790 C.3          1 FAD401   0.0000
    47 O4'         29.1200   -26.2770   -16.9140 O.3          1 FAD401   0.0000
    48 C5'         27.5050   -26.4950   -15.3030 C.3          1 FAD401   0.0000
    49 O5'         27.0250   -25.1700   -15.5170 O.3          1 FAD401   0.0000
    50 P           25.9670   -24.4450   -14.4810 P.3          1 FAD401   0.0000
    51 O1P         25.9830   -22.9780   -14.9380 O.co2        1 FAD401   0.0000
    52 O2P         24.7730   -25.2730   -14.4960 O.co2        1 FAD401  -1.0000
    53 O3P         26.8890   -24.7040   -13.1320 O.3          1 FAD401   0.0000
    54 H5B1        28.9908   -25.7043   -11.9039 H            1 FAD401   0.0000
    55 H5B2        28.3786   -26.4719   -10.5990 H            1 FAD401   0.0000
    56 H4B         30.5777   -25.9233   -10.0873 H            1 FAD401   0.0000
    57 H3B         28.5620   -25.2323    -8.4886 H            1 FAD401   0.0000
    58 H5          31.2853   -24.6121    -8.1829 H            1 FAD401   0.0000
    59 H2B         28.3913   -23.0030    -9.1048 H            1 FAD401   0.0000
    60 H7          28.7358   -22.2036    -7.1782 H            1 FAD401   0.0000
    61 H1B         31.2454   -22.7856    -9.2580 H            1 FAD401   0.0000
    62 H8A         28.3340   -22.1774   -11.5058 H            1 FAD401   0.0000
    63 H6A1        30.8472   -16.7838   -12.6774 H            1 FAD401   0.0000
    64 H6A2        29.5129   -17.8601   -12.9252 H            1 FAD401   0.0000
    65 H2A         33.4357   -18.9194    -9.7037 H            1 FAD401   0.0000
    66 H13         30.3302   -32.3394   -21.4036 H            1 FAD401   0.0000
    67 H14         23.5789   -33.5673   -20.3730 H            1 FAD401   0.0000
    68 H7M1        20.8386   -33.1445   -17.9133 H            1 FAD401   0.0000
    69 H7M2        20.9839   -32.8915   -19.5200 H            1 FAD401   0.0000
    70 H7M3        21.3422   -34.3540   -18.8881 H            1 FAD401   0.0000
    71 H8M1        22.4471   -31.4911   -15.4387 H            1 FAD401   0.0000
    72 H8M2        21.3316   -31.3976   -16.6275 H            1 FAD401   0.0000
    73 H8M3        21.6542   -32.8344   -15.9218 H            1 FAD401   0.0000
    74 H21         24.6723   -31.2600   -16.2189 H            1 FAD401   0.0000
    75 H1'1        28.1816   -30.9725   -16.4517 H            1 FAD401   0.0000
    76 H1'2        26.7074   -31.2744   -15.8175 H            1 FAD401   0.0000
    77 H2'         26.5159   -29.1290   -15.6920 H            1 FAD401   0.0000
    78 H25         25.1611   -28.5310   -17.1215 H            1 FAD401   0.0000
    79 H3'         28.5601   -28.7273   -17.7031 H            1 FAD401   0.0000
    80 H27         29.8769   -29.3437   -16.2310 H            1 FAD401   0.0000
    81 H4'         27.2750   -26.7429   -17.3554 H            1 FAD401   0.0000
    82 H29         29.8749   -26.8992   -17.1215 H            1 FAD401   0.0000
    83 H5'1        28.2748   -26.4858   -14.6648 H            1 FAD401   0.0000
    84 H5'2        26.7755   -27.0729   -14.9371 H            1 FAD401   0.0000
@<TRIPOS>BOND
     1    1    2      ar
     2    1    3      ar
     3    1    4       1
     4    1   53       1
     5    4    5       1
     6    5    6       1
     7    6    7       1
     8    6    8       1
     9    7   12       1
    10    8    9       1
    11    8   10       1
    12   10   11       1
    13   10   12       1
    14   12   13       1
    15   13   14       1
    16   13   22       1
    17   14   15       2
    18   15   16       1
    19   16   17      ar
    20   16   22      ar
    21   17   18       1
    22   17   19      ar
    23   19   20      ar
    24   20   21      ar
    25   21   22      ar
    26   23   24       1
    27   23   40       2
    28   24   25       2
    29   24   26       1
    30   26   27       1
    31   27   28       2
    32   27   29       1
    33   29   30       2
    34   29   40       1
    35   30   31       1
    36   31   32      ar
    37   31   38      ar
    38   32   33      ar
    39   33   34       1
    40   33   35      ar
    41   35   36       1
    42   35   37      ar
    43   37   38      ar
    44   38   39       1
    45   39   40       1
    46   39   41       1
    47   41   42       1
    48   42   43       1
    49   42   44       1
    50   44   45       1
    51   44   46       1
    52   46   47       1
    53   46   48       1
    54   48   49       1
    55   49   50       1
    56   50   51      ar
    57   50   52      ar
    58   50   53       1
    59   48   84       1
    60    5   54       1
    61    5   55       1
    62    6   56       1
    63    8   57       1
    64    9   58       1
    65   10   59       1
    66   11   60       1
    67   12   61       1
    68   14   62       1
    69   18   63       1
    70   18   64       1
    71   20   65       1
    72   26   66       1
    73   32   67       1
    74   34   68       1
    75   34   69       1
    76   34   70       1
    77   36   71       1
    78   36   72       1
    79   36   73       1
    80   37   74       1
    81   41   75       1
    82   41   76       1
    83   42   77       1
    84   43   78       1
    85   44   79       1
    86   45   80       1
    87   46   81       1
    88   47   82       1
    89   48   83       1
@<TRIPOS>SUBSTRUCTURE
     1 FAD401      1 GROUP             4 A     FAD     0 **** FAD A 401
