@<TRIPOS>MOLECULE
./coach420/2cht/ligand.pdb
 33 32 0 0 0
SMALL
GASTEIGER

@<TRIPOS>ATOM
      1  C1        82.2510   30.1110   46.2290 C.3   205  TSA205      0.1173
      2  C2        83.0430   30.1890   44.9400 C.2   205  TSA205     -0.0180
      3  C3        83.4350   29.1060   44.2390 C.2   205  TSA205      0.0009
      4  C4        83.0290   27.7080   44.6070 C.3   205  TSA205      0.1592
      5  O5        84.2150   27.0340   44.9150 O.3   205  TSA205     -0.3776
      6  C5        82.0660   27.6700   45.7960 C.3   205  TSA205      0.1475
      7  C6        82.4750   28.7170   46.8340 C.3   205  TSA205      0.0473
      8  O7        80.6830   27.8330   45.4670 O.3   205  TSA205     -0.3447
      9  C8        80.0850   29.1160   45.2180 C.3   205  TSA205      0.2185
     10  C9        80.7320   30.2570   46.0240 C.3   205  TSA205      0.0562
     11  C10       82.6640   31.2460   47.1890 C.2   205  TSA205      0.3677
     12  O1        82.8120   32.3910   46.7380 O.co2 205  TSA205     -0.2453
     13  O2        82.8430   30.9970   48.3850 O.co2 205  TSA205     -0.2453
     14  C11       80.0310   29.5110   43.7380 C.2   205  TSA205      0.3913
     15  O3        80.2880   28.6610   42.9090 O.co2 205  TSA205     -0.2430
     16  O4        79.7350   30.6650   43.4150 O.co2 205  TSA205     -0.2430
     17  HO5       84.5970   26.8790   44.0590 H     205  TSA205      0.2109
     18  C2        89.4430   17.8030   28.6320 C.2   206  TSA206     -0.0024
     19  C3        90.1500   17.9320   29.7760 C.2   206  TSA206      0.0050
     20  C4        90.2700   16.7960   30.7630 C.3   206  TSA206      0.1594
     21  O5        89.7270   17.2720   31.9550 O.3   206  TSA206     -0.3776
     22  C5        89.5290   15.5210   30.3330 C.3   206  TSA206      0.1468
     23  C6        88.2340   15.8670   29.6050 C.3   206  TSA206      0.0350
     24  O7        90.2740   14.6140   29.5190 O.3   206  TSA206     -0.3447
     25  C8        90.5370   14.8530   28.1400 C.3   206  TSA206      0.2178
     26  C9        89.3570   15.5320   27.4330 C.3   206  TSA206      0.0444
     27  C10       87.3850   16.9430   27.4410 C.2   206  TSA206      0.4661
     28  O1        87.5440   17.7520   26.5130 O.co2 206  TSA206     -0.2331
     29  O2        86.2890   16.4310   27.7060 O.co2 206  TSA206     -0.2331
     30  C11       91.8520   15.6250   27.9230 C.2   206  TSA206      0.3913
     31  O3        92.6740   15.6620   28.8280 O.co2 206  TSA206     -0.2430
     32  O4        92.0660   16.1940   26.8550 O.co2 206  TSA206     -0.2430
     33  HO5       90.3040   17.9900   32.1710 H     206  TSA206      0.2109
@<TRIPOS>BOND
     1     1     2    1
     2     1    10    1
     3     1     7    1
     4     1    11    1
     5     2     3    2
     6     3     4    1
     7     4     5    1
     8     4     6    1
     9     5    17    1
    10     6     8    1
    11     6     7    1
    12     8     9    1
    13     9    14    1
    14     9    10    1
    15    11    12   ar
    16    11    13   ar
    17    14    15   ar
    18    14    16   ar
    19    18    19    2
    20    19    20    1
    21    20    22    1
    22    20    21    1
    23    21    33    1
    24    22    24    1
    25    22    23    1
    26    24    25    1
    27    25    26    1
    28    25    30    1
    29    27    28   ar
    30    27    29   ar
    31    30    32   ar
    32    30    31   ar
