@<TRIPOS>MOLECULE
3u78_E67_1_ligand
   60    61     1     0     0
SMALL
NO_CHARGES


@<TRIPOS>ATOM
     1 N1         -45.8050    23.9650    21.4060 N.ar         1 E67707   0.0000
     2 C2         -44.7900    24.7990    21.0350 C.ar         1 E67707   0.0000
     3 N3         -44.1420    24.6130    19.8990 N.ar         1 E67707   0.0000
     4 C4         -44.4890    23.6080    19.0760 C.ar         1 E67707   0.0000
     5 C5         -45.5400    22.7400    19.4190 C.ar         1 E67707   0.0000
     6 C6         -46.2090    22.9500    20.6390 C.ar         1 E67707   0.0000
     7 CAA        -44.1730    22.3900    17.0380 C.ar         1 E67707   0.0000
     8 CAB        -45.2200    21.5150    17.3510 C.ar         1 E67707   0.0000
     9 CAC        -45.9070    21.6790    18.5470 C.ar         1 E67707   0.0000
    10 CAF        -43.8110    23.4420    17.9060 C.ar         1 E67707   0.0000
    11 OAK        -43.4670    22.3160    15.8520 O.3          1 E67707   0.0000
    12 OAL        -45.5730    20.4920    16.4670 O.3          1 E67707   0.0000
    13 CAM        -46.8410    20.4610    15.9320 C.3          1 E67707   0.0000
    14 NAN        -47.2920    22.0990    21.0800 N.pl3        1 E67707   0.0000
    15 NAU        -44.3440    25.8400    21.9640 N.pl3        1 E67707   0.0000
    16 CAV        -43.8420    26.3210    23.2600 C.3          1 E67707   0.0000
    17 CAW        -43.6070    25.2150    24.3050 C.3          1 E67707   0.0000
    18 CAX        -42.8620    23.9780    23.9210 C.3          1 E67707   0.0000
    19 NAY        -43.4440    23.0170    22.9990 N.4          1 E67707   1.0000
    20 CAZ        -43.7940    21.7690    23.7120 C.3          1 E67707   0.0000
    21 CBA        -42.5320    22.6980    21.9490 C.3          1 E67707   0.0000
    22 CBB        -43.4290    23.4970    15.0880 C.3          1 E67707   0.0000
    23 CBC        -42.0560    24.1540    14.7460 C.3          1 E67707   0.0000
    24 CBD        -41.0550    23.3850    13.8860 C.3          1 E67707   0.0000
    25 CBE        -39.8970    24.2270    13.3660 C.3          1 E67707   0.0000
    26 CBF        -40.0880    25.7410    13.4530 C.3          1 E67707   0.0000
    27 NBG        -38.9990    26.6230    13.0240 N.3          1 E67707   0.0000
    28 HAC        -46.6514    21.0577    18.7919 H            1 E67707   0.0000
    29 HAF        -43.0632    24.0604    17.6644 H            1 E67707   0.0000
    30 HAM1       -46.9274    19.6712    15.3248 H            1 E67707   0.0000
    31 HAM2       -47.5124    20.3893    16.6697 H            1 E67707   0.0000
    32 HAM3       -47.0044    21.3000    15.4129 H            1 E67707   0.0000
    33 HAN1       -47.5956    21.3383    20.5063 H            1 E67707   0.0000
    34 HAN2       -47.7373    22.2713    21.9587 H            1 E67707   0.0000
    35 HAU        -44.4245    26.6781    21.4244 H            1 E67707   0.0000
    36 HAV1       -44.5087    26.9663    23.6330 H            1 E67707   0.0000
    37 HAV2       -42.9739    26.7919    23.1032 H            1 E67707   0.0000
    38 HAW1       -44.5081    24.9228    24.6253 H            1 E67707   0.0000
    39 HAW2       -43.1039    25.6332    25.0613 H            1 E67707   0.0000
    40 HAX1       -42.6747    23.4826    24.7692 H            1 E67707   0.0000
    41 HAX2       -41.9999    24.2789    23.5133 H            1 E67707   0.0000
    42 HAZ1       -44.1929    21.1172    23.0670 H            1 E67707   0.0000
    43 HAZ2       -42.9695    21.3744    24.1176 H            1 E67707   0.0000
    44 HAZ3       -44.4562    21.9717    24.4334 H            1 E67707   0.0000
    45 HBA1       -42.9550    22.0366    21.3296 H            1 E67707   0.0000
    46 HBA2       -42.3025    23.5293    21.4428 H            1 E67707   0.0000
    47 HBA3       -41.6994    22.3045    22.3388 H            1 E67707   0.0000
    48 HBB1       -43.9617    24.1814    15.5858 H            1 E67707   0.0000
    49 HBB2       -43.8777    23.2937    14.2178 H            1 E67707   0.0000
    50 HBC1       -41.6027    24.3524    15.6150 H            1 E67707   0.0000
    51 HBC2       -42.2529    25.0108    14.2694 H            1 E67707   0.0000
    52 HBD1       -41.5438    23.0057    13.1003 H            1 E67707   0.0000
    53 HBD2       -40.6779    22.6395    14.4356 H            1 E67707   0.0000
    54 HBE1       -39.7519    23.9902    12.4053 H            1 E67707   0.0000
    55 HBE2       -39.0822    23.9891    13.8947 H            1 E67707   0.0000
    56 HBF1       -40.2796    25.9571    14.4104 H            1 E67707   0.0000
    57 HBF2       -40.8856    25.9678    12.8940 H            1 E67707   0.0000
    58 HBG1       -38.1858    26.4418    13.5770 H            1 E67707   0.0000
    59 HAY        -44.2739    23.4086    22.6016 H            1 E67707   0.0000
    60 HBG2       -38.7918    26.4525    12.0607 H            1 E67707   0.0000
@<TRIPOS>BOND
     1    1    2      ar
     2    1    6      ar
     3    2    3      ar
     4    2   15       1
     5    3    4      ar
     6    4    5      ar
     7    4   10      ar
     8    5    6      ar
     9    5    9      ar
    10    6   14       1
    11    7    8      ar
    12    7   10      ar
    13    7   11       1
    14    8    9      ar
    15    8   12       1
    16   11   22       1
    17   12   13       1
    18   15   16       1
    19   16   17       1
    20   17   18       1
    21   18   19       1
    22   19   20       1
    23   19   21       1
    24   22   23       1
    25   23   24       1
    26   24   25       1
    27   25   26       1
    28   26   27       1
    29    9   28       1
    30   10   29       1
    31   13   30       1
    32   13   31       1
    33   13   32       1
    34   14   33       1
    35   14   34       1
    36   15   35       1
    37   16   36       1
    38   16   37       1
    39   17   38       1
    40   17   39       1
    41   18   40       1
    42   18   41       1
    43   20   42       1
    44   20   43       1
    45   20   44       1
    46   21   45       1
    47   21   46       1
    48   21   47       1
    49   22   48       1
    50   22   49       1
    51   23   50       1
    52   23   51       1
    53   24   52       1
    54   24   53       1
    55   25   54       1
    56   25   55       1
    57   26   56       1
    58   26   57       1
    59   27   60       1
    60   27   58       1
    61   19   59       1
@<TRIPOS>SUBSTRUCTURE
     1 E67707      1 GROUP             4 A     E67     0 **** E67 A 707
