@<TRIPOS>MOLECULE
1a5u_ATP_5_ligand
   43    45     1     0     0
SMALL
NO_CHARGES


@<TRIPOS>ATOM
     1 PG          39.5510   167.0160    25.2870 P.3          1 ATP4135   0.0000
     2 O1G         40.0170   167.6040    26.5830 O.co2        1 ATP4135   0.0000
     3 O2G         40.4780   167.6010    24.2570 O.co2        1 ATP4135  -1.0000
     4 O3G         38.2240   167.4660    25.0480 O.co2        1 ATP4135  -1.0000
     5 PB          40.5480   164.2770    25.7740 P.3          1 ATP4135   0.0000
     6 O1B         40.3760   163.1940    24.7770 O.co2        1 ATP4135   0.0000
     7 O2B         41.9840   164.6660    25.7980 O.co2        1 ATP4135  -1.0000
     8 O3B         39.6520   165.3210    25.2570 O.3          1 ATP4135   0.0000
     9 PA          39.9180   164.3820    28.5800 P.3          1 ATP4135   0.0000
    10 O1A         40.7880   165.6030    28.8290 O.co2        1 ATP4135   0.0000
    11 O2A         38.5160   164.7440    28.8390 O.co2        1 ATP4135  -1.0000
    12 O3A         40.1120   163.7090    27.2210 O.3          1 ATP4135   0.0000
    13 O5'         40.4200   163.0540    29.5940 O.3          1 ATP4135   0.0000
    14 C5'         41.7310   162.4820    29.4040 C.3          1 ATP4135   0.0000
    15 C4'         41.6270   160.9830    29.1830 C.3          1 ATP4135   0.0000
    16 O4'         40.7010   160.4370    30.1820 O.3          1 ATP4135   0.0000
    17 C3'         41.0680   160.5480    27.8130 C.3          1 ATP4135   0.0000
    18 O3'         42.0850   160.5170    26.7680 O.3          1 ATP4135   0.0000
    19 C2'         40.4700   159.1960    28.1840 C.3          1 ATP4135   0.0000
    20 O2'         41.4970   158.1630    28.1340 O.3          1 ATP4135   0.0000
    21 C1'         39.9170   159.4240    29.6230 C.3          1 ATP4135   0.0000
    22 N9          38.4380   159.7850    29.7100 N.pl3        1 ATP4135   0.0000
    23 C8          37.8430   161.0520    29.7340 C.2          1 ATP4135   0.0000
    24 N7          36.5300   161.0360    29.8570 N.2          1 ATP4135   0.0000
    25 C5          36.2040   159.6850    30.0230 C.ar         1 ATP4135   0.0000
    26 C6          34.9580   159.0780    30.1140 C.ar         1 ATP4135   0.0000
    27 N6          33.7810   159.8440    30.2320 N.pl3        1 ATP4135   0.0000
    28 N1          34.9770   157.7050    30.1340 N.ar         1 ATP4135   0.0000
    29 C2          36.2010   157.0350    29.9360 C.ar         1 ATP4135   0.0000
    30 N3          37.3880   157.5130    29.7920 N.ar         1 ATP4135   0.0000
    31 C4          37.3600   158.8800    29.7860 C.ar         1 ATP4135   0.0000
    32 H5'1        42.2880   162.6576    30.2157 H            1 ATP4135   0.0000
    33 H5'2        42.1621   162.9036    28.6063 H            1 ATP4135   0.0000
    34 H4'         42.5285   160.5705    29.3136 H            1 ATP4135   0.0000
    35 H3'         40.3343   161.1711    27.5421 H            1 ATP4135   0.0000
    36 H5          41.6682   160.2296    25.9056 H            1 ATP4135   0.0000
    37 H2'         39.7223   158.9680    27.5604 H            1 ATP4135   0.0000
    38 H7          41.0947   157.2808    28.3788 H            1 ATP4135   0.0000
    39 H1'         40.0655   158.5875    30.1505 H            1 ATP4135   0.0000
    40 H9          38.3699   161.8990    29.6637 H            1 ATP4135   0.0000
    41 H10         32.8928   159.3891    30.2963 H            1 ATP4135   0.0000
    42 H11         33.8340   160.8424    30.2514 H            1 ATP4135   0.0000
    43 H12         36.1382   156.0375    29.9022 H            1 ATP4135   0.0000
@<TRIPOS>BOND
     1    1    2      ar
     2    1    3      ar
     3    1    4      ar
     4    1    8       1
     5    5    6      ar
     6    5    7      ar
     7    5    8       1
     8    5   12       1
     9    9   10      ar
    10    9   11      ar
    11    9   12       1
    12    9   13       1
    13   13   14       1
    14   14   15       1
    15   15   16       1
    16   15   17       1
    17   16   21       1
    18   17   18       1
    19   17   19       1
    20   19   20       1
    21   19   21       1
    22   21   22       1
    23   22   23       1
    24   22   31       1
    25   23   24       2
    26   24   25       1
    27   25   26      ar
    28   25   31      ar
    29   26   27       1
    30   26   28      ar
    31   28   29      ar
    32   29   30      ar
    33   30   31      ar
    34   29   43       1
    35   27   42       1
    36   27   41       1
    37   23   40       1
    38   14   32       1
    39   14   33       1
    40   15   34       1
    41   17   35       1
    42   18   36       1
    43   19   37       1
    44   20   38       1
    45   21   39       1
@<TRIPOS>SUBSTRUCTURE
     1 ATP4135     1 GROUP             4 F     ATP     0 **** ATP F4135
