@<TRIPOS>MOLECULE
3vth_APC_3_ligand
   45    47     1     0     0
SMALL
NO_CHARGES


@<TRIPOS>ATOM
     1 PG          81.0070   -12.4230    -8.5110 P.3          1 APC804   0.0000
     2 O1G         81.3340   -13.5900    -7.6150 O.co2        1 APC804   0.0000
     3 O2G         80.6850   -12.8540    -9.9210 O.co2        1 APC804  -1.0000
     4 O3G         79.9950   -11.4670    -7.9480 O.co2        1 APC804  -1.0000
     5 PB          83.8460   -11.9230    -8.5320 P.3          1 APC804   0.0000
     6 O1B         84.0770   -12.1880    -7.0770 O.co2        1 APC804   0.0000
     7 O2B         84.6590   -10.7840    -9.1140 O.co2        1 APC804  -1.0000
     8 O3B         82.3070   -11.4800    -8.6850 O.3          1 APC804   0.0000
     9 PA          85.0700   -14.8020    -8.8350 P.3          1 APC804   0.0000
    10 O1A         85.1990   -15.8440    -9.9210 O.co2        1 APC804   0.0000
    11 O2A         84.5590   -15.3000    -7.5320 O.co2        1 APC804  -1.0000
    12 C3A         84.0500   -13.4410    -9.5220 C.3          1 APC804   0.0000
    13 O5'         86.5030   -14.1460    -8.4950 O.3          1 APC804   0.0000
    14 C5'         87.6910   -14.3970    -9.2400 C.3          1 APC804   0.0000
    15 C4'         88.4230   -13.0720    -9.4360 C.3          1 APC804   0.0000
    16 O4'         89.6680   -13.3780   -10.0750 O.3          1 APC804   0.0000
    17 C3'         87.6370   -12.1500   -10.3720 C.3          1 APC804   0.0000
    18 O3'         87.6690   -10.7830    -9.9260 O.3          1 APC804   0.0000
    19 C2'         88.3950   -12.2460   -11.6800 C.3          1 APC804   0.0000
    20 O2'         88.1980   -11.0940   -12.5220 O.3          1 APC804   0.0000
    21 C1'         89.8210   -12.5230   -11.2070 C.3          1 APC804   0.0000
    22 N9          90.4960   -13.2010   -12.3080 N.pl3        1 APC804   0.0000
    23 C8          90.3510   -14.4950   -12.7020 C.2          1 APC804   0.0000
    24 N7          91.1120   -14.7300   -13.8000 N.2          1 APC804   0.0000
    25 C5          91.7410   -13.5760   -14.1100 C.ar         1 APC804   0.0000
    26 C6          92.6840   -13.1110   -15.1510 C.ar         1 APC804   0.0000
    27 N6          93.1340   -13.9520   -16.1050 N.pl3        1 APC804   0.0000
    28 N1          93.0850   -11.8210   -15.1120 N.ar         1 APC804   0.0000
    29 C2          92.6660   -10.9620   -14.1600 C.ar         1 APC804   0.0000
    30 N3          91.8060   -11.2950   -13.1840 N.ar         1 APC804   0.0000
    31 C4          91.3290   -12.5700   -13.1200 C.ar         1 APC804   0.0000
    32 H3A1        84.4629   -13.1728   -10.3924 H            1 APC804   0.0000
    33 H3A2        83.1358   -13.8112    -9.6868 H            1 APC804   0.0000
    34 H5'1        87.4558   -14.7882   -10.1298 H            1 APC804   0.0000
    35 H5'2        88.2756   -15.0354    -8.7392 H            1 APC804   0.0000
    36 H4'         88.5813   -12.6253    -8.5554 H            1 APC804   0.0000
    37 H3'         86.6954   -12.4688   -10.4802 H            1 APC804   0.0000
    38 H7          86.8968   -10.6140    -9.3136 H            1 APC804   0.0000
    39 H2'         88.0672   -13.0523   -12.1724 H            1 APC804   0.0000
    40 H9          88.7176   -11.2073   -13.3688 H            1 APC804   0.0000
    41 H1'         90.2917   -11.6760   -10.9602 H            1 APC804   0.0000
    42 H11         89.7702   -15.1718   -12.2497 H            1 APC804   0.0000
    43 H12         93.7711   -13.6227   -16.8018 H            1 APC804   0.0000
    44 H13         92.8304   -14.9048   -16.1153 H            1 APC804   0.0000
    45 H14         93.0152   -10.0252   -14.1824 H            1 APC804   0.0000
@<TRIPOS>BOND
     1    1    2      ar
     2    1    3      ar
     3    1    4      ar
     4    1    8       1
     5    5    6      ar
     6    5    7      ar
     7    5    8       1
     8    5   12       1
     9    9   10      ar
    10    9   11      ar
    11    9   12       1
    12    9   13       1
    13   13   14       1
    14   14   15       1
    15   15   16       1
    16   15   17       1
    17   16   21       1
    18   17   18       1
    19   17   19       1
    20   19   20       1
    21   19   21       1
    22   21   22       1
    23   22   23       1
    24   22   31       1
    25   23   24       2
    26   24   25       1
    27   25   26      ar
    28   25   31      ar
    29   26   27       1
    30   26   28      ar
    31   28   29      ar
    32   29   30      ar
    33   30   31      ar
    34   29   45       1
    35   27   44       1
    36   27   43       1
    37   23   42       1
    38   12   32       1
    39   12   33       1
    40   14   34       1
    41   14   35       1
    42   15   36       1
    43   17   37       1
    44   18   38       1
    45   19   39       1
    46   20   40       1
    47   21   41       1
@<TRIPOS>SUBSTRUCTURE
     1 APC804      1 GROUP             4 A     APC     0 **** APC A 804
