@<TRIPOS>MOLECULE
4i58_FAD_1_ligand
   84    89     1     0     0
SMALL
NO_CHARGES


@<TRIPOS>ATOM
     1 PA          82.3300   -60.5610   146.4290 P.3          1 FAD501   0.0000
     2 O1A         81.9240   -59.9220   147.7060 O.co2        1 FAD501   0.0000
     3 O2A         81.7870   -60.1010   145.1190 O.co2        1 FAD501  -1.0000
     4 O5B         82.0540   -62.1410   146.5060 O.3          1 FAD501   0.0000
     5 C5B         82.4400   -62.9360   147.6450 C.3          1 FAD501   0.0000
     6 C4B         81.5290   -64.1730   147.6250 C.3          1 FAD501   0.0000
     7 O4B         81.7780   -64.8940   148.8170 O.3          1 FAD501   0.0000
     8 C3B         80.0310   -63.8580   147.6100 C.3          1 FAD501   0.0000
     9 O3B         79.3660   -64.3950   146.4870 O.3          1 FAD501   0.0000
    10 C2B         79.5330   -64.3950   148.9210 C.3          1 FAD501   0.0000
    11 O2B         78.2050   -64.8650   148.8950 O.3          1 FAD501   0.0000
    12 C1B         80.5760   -65.4580   149.2720 C.3          1 FAD501   0.0000
    13 N9A         80.7670   -65.7430   150.7000 N.pl3        1 FAD501   0.0000
    14 C8A         80.8970   -64.8330   151.7320 C.2          1 FAD501   0.0000
    15 N7A         81.0660   -65.4300   152.9200 N.2          1 FAD501   0.0000
    16 C5A         81.0420   -66.7810   152.6380 C.ar         1 FAD501   0.0000
    17 C6A         81.1750   -67.9220   153.4590 C.ar         1 FAD501   0.0000
    18 N6A         81.3600   -67.8690   154.7550 N.pl3        1 FAD501   0.0000
    19 N1A         81.1020   -69.1610   152.8560 N.ar         1 FAD501   0.0000
    20 C2A         80.9100   -69.2530   151.4950 C.ar         1 FAD501   0.0000
    21 N3A         80.7810   -68.2050   150.6490 N.ar         1 FAD501   0.0000
    22 C4A         80.8570   -66.9870   151.2630 C.ar         1 FAD501   0.0000
    23 N1          83.5340   -52.3080   140.9720 N.2          1 FAD501   0.0000
    24 C2          83.9240   -51.8590   139.7250 C.2          1 FAD501   0.0000
    25 O2          84.9940   -52.1860   139.2400 O.2          1 FAD501   0.0000
    26 N3          83.0520   -51.0170   139.0170 N.pl3        1 FAD501   0.0000
    27 C4          81.8140   -50.6000   139.4840 C.2          1 FAD501   0.0000
    28 O4          81.0840   -49.8470   138.7920 O.2          1 FAD501   0.0000
    29 C4X         81.4140   -51.0740   140.7570 C.2          1 FAD501   0.0000
    30 N5          80.1750   -50.7180   141.2860 N.2          1 FAD501   0.0000
    31 C5X         79.7640   -51.1950   142.5150 C.ar         1 FAD501   0.0000
    32 C6          78.5060   -50.8480   143.0030 C.ar         1 FAD501   0.0000
    33 C7          78.0180   -51.3200   144.2360 C.ar         1 FAD501   0.0000
    34 C7M         76.6380   -50.9100   144.6900 C.3          1 FAD501   0.0000
    35 C8          78.8650   -52.1870   145.0130 C.ar         1 FAD501   0.0000
    36 C8M         78.4220   -52.7480   146.3360 C.3          1 FAD501   0.0000
    37 C9          80.1530   -52.5430   144.5370 C.ar         1 FAD501   0.0000
    38 C9A         80.6320   -52.0650   143.2840 C.ar         1 FAD501   0.0000
    39 N10         81.9260   -52.4210   142.7490 N.pl3        1 FAD501   0.0000
    40 C10         82.3110   -51.9300   141.4820 C.2          1 FAD501   0.0000
    41 C1'         82.8920   -53.3220   143.5010 C.3          1 FAD501   0.0000
    42 C2'         82.8600   -54.7700   143.0270 C.3          1 FAD501   0.0000
    43 O2'         81.5580   -55.2310   143.1950 O.3          1 FAD501   0.0000
    44 C3'         83.8370   -55.6350   143.8520 C.3          1 FAD501   0.0000
    45 O3'         85.1910   -55.1930   143.7060 O.3          1 FAD501   0.0000
    46 C4'         83.9110   -57.1300   143.4790 C.3          1 FAD501   0.0000
    47 O4'         82.6430   -57.7060   143.1460 O.3          1 FAD501   0.0000
    48 C5'         84.5330   -57.9010   144.6290 C.3          1 FAD501   0.0000
    49 O5'         84.5490   -59.2620   144.2180 O.3          1 FAD501   0.0000
    50 P           84.9450   -60.4400   145.1660 P.3          1 FAD501   0.0000
    51 O1P         84.8020   -61.6340   144.3080 O.co2        1 FAD501   0.0000
    52 O2P         86.3010   -60.2270   145.7860 O.co2        1 FAD501  -1.0000
    53 O3P         83.9240   -60.4190   146.3700 O.3          1 FAD501   0.0000
    54 H5B1        82.3064   -62.4195   148.4908 H            1 FAD501   0.0000
    55 H5B2        83.3990   -63.2093   147.5693 H            1 FAD501   0.0000
    56 H4B         81.7580   -64.7433   146.8361 H            1 FAD501   0.0000
    57 H3B         79.9134   -62.8649   147.6062 H            1 FAD501   0.0000
    58 H5          79.0374   -65.3146   146.7024 H            1 FAD501   0.0000
    59 H2B         79.5919   -63.6636   149.6004 H            1 FAD501   0.0000
    60 H7          78.1270   -65.6069   148.2291 H            1 FAD501   0.0000
    61 H1B         80.3842   -66.3045   148.7755 H            1 FAD501   0.0000
    62 H8A         80.8682   -63.8413   151.6065 H            1 FAD501   0.0000
    63 H6A1        81.4470   -68.7140   155.2826 H            1 FAD501   0.0000
    64 H6A2        81.4142   -66.9835   155.2165 H            1 FAD501   0.0000
    65 H2A         80.8620   -70.1702   151.0996 H            1 FAD501   0.0000
    66 H13         83.3427   -50.6963   138.1155 H            1 FAD501   0.0000
    67 H14         77.9284   -50.2411   142.4571 H            1 FAD501   0.0000
    68 H7M1        76.4421   -51.3257   145.5782 H            1 FAD501   0.0000
    69 H7M2        76.5960   -49.9142   144.7715 H            1 FAD501   0.0000
    70 H7M3        75.9617   -51.2185   144.0211 H            1 FAD501   0.0000
    71 H8M1        79.1479   -53.3224   146.7144 H            1 FAD501   0.0000
    72 H8M2        78.2271   -51.9977   146.9678 H            1 FAD501   0.0000
    73 H8M3        77.5964   -53.2970   146.2056 H            1 FAD501   0.0000
    74 H21         80.7342   -53.1395   145.0905 H            1 FAD501   0.0000
    75 H1'1        82.6549   -53.3008   144.4723 H            1 FAD501   0.0000
    76 H1'2        83.8188   -52.9677   143.3763 H            1 FAD501   0.0000
    77 H2'         83.1090   -54.8122   142.0594 H            1 FAD501   0.0000
    78 H25         81.4997   -56.1824   142.8928 H            1 FAD501   0.0000
    79 H3'         83.5842   -55.5630   144.8168 H            1 FAD501   0.0000
    80 H27         85.3967   -54.5115   144.4083 H            1 FAD501   0.0000
    81 H4'         84.5110   -57.2216   142.6843 H            1 FAD501   0.0000
    82 H29         82.4424   -58.4568   143.7753 H            1 FAD501   0.0000
    83 H5'1        83.9837   -57.7938   145.4577 H            1 FAD501   0.0000
    84 H5'2        85.4636   -57.5783   144.8018 H            1 FAD501   0.0000
@<TRIPOS>BOND
     1    1    2      ar
     2    1    3      ar
     3    1    4       1
     4    1   53       1
     5    4    5       1
     6    5    6       1
     7    6    7       1
     8    6    8       1
     9    7   12       1
    10    8    9       1
    11    8   10       1
    12   10   11       1
    13   10   12       1
    14   12   13       1
    15   13   14       1
    16   13   22       1
    17   14   15       2
    18   15   16       1
    19   16   17      ar
    20   16   22      ar
    21   17   18       1
    22   17   19      ar
    23   19   20      ar
    24   20   21      ar
    25   21   22      ar
    26   23   24       1
    27   23   40       2
    28   24   25       2
    29   24   26       1
    30   26   27       1
    31   27   28       2
    32   27   29       1
    33   29   30       2
    34   29   40       1
    35   30   31       1
    36   31   32      ar
    37   31   38      ar
    38   32   33      ar
    39   33   34       1
    40   33   35      ar
    41   35   36       1
    42   35   37      ar
    43   37   38      ar
    44   38   39       1
    45   39   40       1
    46   39   41       1
    47   41   42       1
    48   42   43       1
    49   42   44       1
    50   44   45       1
    51   44   46       1
    52   46   47       1
    53   46   48       1
    54   48   49       1
    55   49   50       1
    56   50   51      ar
    57   50   52      ar
    58   50   53       1
    59   48   84       1
    60    5   54       1
    61    5   55       1
    62    6   56       1
    63    8   57       1
    64    9   58       1
    65   10   59       1
    66   11   60       1
    67   12   61       1
    68   14   62       1
    69   18   63       1
    70   18   64       1
    71   20   65       1
    72   26   66       1
    73   32   67       1
    74   34   68       1
    75   34   69       1
    76   34   70       1
    77   36   71       1
    78   36   72       1
    79   36   73       1
    80   37   74       1
    81   41   75       1
    82   41   76       1
    83   42   77       1
    84   43   78       1
    85   44   79       1
    86   45   80       1
    87   46   81       1
    88   47   82       1
    89   48   83       1
@<TRIPOS>SUBSTRUCTURE
     1 FAD501      1 GROUP             4 A     FAD     0 **** FAD A 501
