@<TRIPOS>MOLECULE
2d8a_NAD_1_ligand
   70    74     1     0     0
SMALL
NO_CHARGES


@<TRIPOS>ATOM
     1 PA          19.5020    34.7900    18.8970 P.3          1 NAD401   0.0000
     2 O1A         20.0880    34.7940    20.2280 O.co2        1 NAD401   0.0000
     3 O2A         18.1820    34.1560    18.8920 O.co2        1 NAD401  -1.0000
     4 O5B         19.1610    36.2380    18.2550 O.3          1 NAD401   0.0000
     5 C5B         20.0080    37.4070    18.3590 C.3          1 NAD401   0.0000
     6 C4B         19.3990    38.5260    19.1990 C.3          1 NAD401   0.0000
     7 O4B         18.6880    39.5100    18.3800 O.3          1 NAD401   0.0000
     8 C3B         18.3640    38.1700    20.3160 C.3          1 NAD401   0.0000
     9 O3B         18.9270    38.3120    21.6260 O.3          1 NAD401   0.0000
    10 C2B         17.1820    39.1290    19.9880 C.3          1 NAD401   0.0000
    11 O2B         16.5250    39.6220    21.1890 O.3          1 NAD401   0.0000
    12 C1B         17.8900    40.2340    19.2530 C.3          1 NAD401   0.0000
    13 N9A         16.9690    41.1260    18.5180 N.pl3        1 NAD401   0.0000
    14 C8A         15.6920    40.8840    18.0250 C.2          1 NAD401   0.0000
    15 N7A         15.1290    41.9540    17.3940 N.2          1 NAD401   0.0000
    16 C5A         16.1240    42.9350    17.5010 C.ar         1 NAD401   0.0000
    17 C6A         16.1770    44.3130    17.0460 C.ar         1 NAD401   0.0000
    18 N6A         15.1780    44.9060    16.3900 N.pl3        1 NAD401   0.0000
    19 N1A         17.3430    45.0190    17.3250 N.ar         1 NAD401   0.0000
    20 C2A         18.3820    44.4000    18.0070 C.ar         1 NAD401   0.0000
    21 N3A         18.4250    43.1530    18.4630 N.ar         1 NAD401   0.0000
    22 C4A         17.2660    42.4540    18.1850 C.ar         1 NAD401   0.0000
    23 O3          20.4710    34.0240    17.9350 O.3          1 NAD401   0.0000
    24 PN          22.0610    33.9180    17.6150 P.3          1 NAD401   0.0000
    25 O1N         22.4090    32.4950    17.8500 O.co2        1 NAD401   0.0000
    26 O2N         22.8010    34.8510    18.4710 O.co2        1 NAD401  -1.0000
    27 O5D         22.0060    34.1880    16.0590 O.3          1 NAD401   0.0000
    28 C5D         22.0550    35.5370    15.5730 C.3          1 NAD401   0.0000
    29 C4D         21.8470    35.4880    14.0820 C.3          1 NAD401   0.0000
    30 O4D         22.9690    34.8900    13.3510 O.3          1 NAD401   0.0000
    31 C3D         20.5740    34.7160    13.6740 C.3          1 NAD401   0.0000
    32 O3D         19.7710    35.3460    12.6650 O.3          1 NAD401   0.0000
    33 C2D         21.1920    33.3690    13.2570 C.3          1 NAD401   0.0000
    34 O2D         20.2520    32.6030    12.4740 O.3          1 NAD401   0.0000
    35 C1D         22.4100    33.8900    12.5290 C.3          1 NAD401   0.0000
    36 N1N         23.4480    32.8940    12.1570 N.ar         1 NAD401   1.0000
    37 C2N         23.9290    33.1100    10.8790 C.ar         1 NAD401   0.0000
    38 C3N         24.9050    32.2470    10.4080 C.ar         1 NAD401   0.0000
    39 C7N         25.4950    32.4270     9.0070 C.2          1 NAD401   0.0000
    40 O7N         26.3500    31.6450     8.6080 O.2          1 NAD401   0.0000
    41 N7N         25.0630    33.4460     8.2420 N.am         1 NAD401   0.0000
    42 C4N         25.4180    31.1510    11.2300 C.ar         1 NAD401   0.0000
    43 C5N         24.8330    31.0410    12.5370 C.ar         1 NAD401   0.0000
    44 C6N         23.8540    31.8650    13.0640 C.ar         1 NAD401   0.0000
    45 H5B1        20.1772    37.7584    17.4382 H            1 NAD401   0.0000
    46 H5B2        20.8749    37.1339    18.7760 H            1 NAD401   0.0000
    47 H4B         20.1562    39.0055    19.6425 H            1 NAD401   0.0000
    48 H3B         18.0616    37.2250    20.1915 H            1 NAD401   0.0000
    49 H5          19.6261    39.0269    21.6127 H            1 NAD401   0.0000
    50 H2B         16.5214    38.6774    19.3883 H            1 NAD401   0.0000
    51 H7          17.1854    40.1229    21.7485 H            1 NAD401   0.0000
    52 H1B         18.4569    40.7635    19.8840 H            1 NAD401   0.0000
    53 H8A         15.2276    40.0039    18.1242 H            1 NAD401   0.0000
    54 H6A1        15.2668    45.8586    16.0990 H            1 NAD401   0.0000
    55 H6A2        14.3404    44.3979    16.1893 H            1 NAD401   0.0000
    56 H2A         19.1940    44.9590    18.1748 H            1 NAD401   0.0000
    57 H5D1        22.9451    35.9427    15.7805 H            1 NAD401   0.0000
    58 H5D2        21.3330    36.0807    16.0009 H            1 NAD401   0.0000
    59 H4D         21.7450    36.4294    13.7605 H            1 NAD401   0.0000
    60 H3D         20.0114    34.5723    14.4881 H            1 NAD401   0.0000
    61 H17         18.8569    35.5237    13.0293 H            1 NAD401   0.0000
    62 H2D         21.4692    32.8514    14.0665 H            1 NAD401   0.0000
    63 H19         20.0632    31.7357    12.9346 H            1 NAD401   0.0000
    64 H1D         22.0957    34.3295    11.6875 H            1 NAD401   0.0000
    65 H2N         23.5852    33.8612    10.3156 H            1 NAD401   0.0000
    66 H7N1        25.4388    33.5768     7.3246 H            1 NAD401   0.0000
    67 H7N2        24.3661    34.0726     8.5908 H            1 NAD401   0.0000
    68 H4N         26.1254    30.5233    10.9051 H            1 NAD401   0.0000
    69 H5N         25.1640    30.2997    13.1208 H            1 NAD401   0.0000
    70 H6N         23.4712    31.7530    13.9810 H            1 NAD401   0.0000
@<TRIPOS>BOND
     1    1    2      ar
     2    1    3      ar
     3    1    4       1
     4    1   23       1
     5    4    5       1
     6    5    6       1
     7    6    7       1
     8    6    8       1
     9    7   12       1
    10    8    9       1
    11    8   10       1
    12   10   11       1
    13   10   12       1
    14   12   13       1
    15   13   14       1
    16   13   22       1
    17   14   15       2
    18   15   16       1
    19   16   17      ar
    20   16   22      ar
    21   17   18       1
    22   17   19      ar
    23   19   20      ar
    24   20   21      ar
    25   21   22      ar
    26   23   24       1
    27   24   25      ar
    28   24   26      ar
    29   24   27       1
    30   27   28       1
    31   28   29       1
    32   29   30       1
    33   29   31       1
    34   30   35       1
    35   31   32       1
    36   31   33       1
    37   33   34       1
    38   33   35       1
    39   35   36       1
    40   36   37      ar
    41   36   44      ar
    42   37   38      ar
    43   38   39       1
    44   38   42      ar
    45   39   40       2
    46   39   41      am
    47   42   43      ar
    48   43   44      ar
    49   44   70       1
    50    5   45       1
    51    5   46       1
    52    6   47       1
    53    8   48       1
    54    9   49       1
    55   10   50       1
    56   11   51       1
    57   12   52       1
    58   14   53       1
    59   18   54       1
    60   18   55       1
    61   20   56       1
    62   43   69       1
    63   28   57       1
    64   28   58       1
    65   29   59       1
    66   31   60       1
    67   32   61       1
    68   33   62       1
    69   34   63       1
    70   35   64       1
    71   37   65       1
    72   41   66       1
    73   41   67       1
    74   42   68       1
@<TRIPOS>SUBSTRUCTURE
     1 NAD401      1 GROUP             4 A     NAD     0 **** NAD A 401
