@<TRIPOS>MOLECULE
4l4o_144_1_ligand
   20    19     1     0     0
SMALL
NO_CHARGES


@<TRIPOS>ATOM
     1 C1           5.1320    -7.3750   -17.4000 C.3          1 144401   0.0000
     2 N            6.0000    -6.2350   -17.7840 N.4          1 144401   1.0000
     3 C2           6.6270    -6.4920   -19.0400 C.3          1 144401   0.0000
     4 O2           7.2160    -5.2870   -19.4280 O.3          1 144401   0.0000
     5 C3           5.2770    -4.9890   -17.9960 C.3          1 144401   0.0000
     6 O3           4.3800    -5.0880   -19.0720 O.3          1 144401   0.0000
     7 C4           6.9950    -5.9080   -16.7550 C.3          1 144401   0.0000
     8 O4           8.1980    -6.6020   -16.8490 O.3          1 144401   0.0000
     9 H1           4.6992    -7.1825   -16.5193 H            1 144401   0.0000
    10 H2           4.4266    -7.5062   -18.0965 H            1 144401   0.0000
    11 H3           5.6851    -8.2047   -17.3253 H            1 144401   0.0000
    12 H4           5.9480    -6.7804   -19.7151 H            1 144401   0.0000
    13 H5           7.3228    -7.2035   -18.9422 H            1 144401   0.0000
    14 H6           7.6738    -5.4081   -20.3087 H            1 144401   0.0000
    15 H7           5.9349    -4.2608   -18.1880 H            1 144401   0.0000
    16 H8           4.7652    -4.7657   -17.1664 H            1 144401   0.0000
    17 H9           3.9022    -4.2174   -19.1888 H            1 144401   0.0000
    18 H10          6.5924    -6.1072   -15.8616 H            1 144401   0.0000
    19 H11          7.1963    -4.9306   -16.8194 H            1 144401   0.0000
    20 H12          8.0332    -7.5014   -17.2540 H            1 144401   0.0000
@<TRIPOS>BOND
     1    1    2       1
     2    2    3       1
     3    2    5       1
     4    2    7       1
     5    3    4       1
     6    5    6       1
     7    7    8       1
     8    1    9       1
     9    1   10       1
    10    1   11       1
    11    3   12       1
    12    3   13       1
    13    4   14       1
    14    5   15       1
    15    5   16       1
    16    6   17       1
    17    7   18       1
    18    7   19       1
    19    8   20       1
@<TRIPOS>SUBSTRUCTURE
     1 144401      1 GROUP             4 A     144     0 **** 144 A 401
