@<TRIPOS>MOLECULE
1wkh_PPE_1_ligand
   42    42     1     0     0
SMALL
NO_CHARGES


@<TRIPOS>ATOM
     1 N1          31.2480     0.8350    63.5720 N.ar         1 PPE513   1.0000
     2 C2          32.5050     0.2530    63.3820 C.ar         1 PPE513   0.0000
     3 C2A         32.7580    -0.7620    64.4880 C.3          1 PPE513   0.0000
     4 C3          33.3040     0.6950    62.2250 C.ar         1 PPE513   0.0000
     5 O3          34.5050     0.0440    62.1680 O.3          1 PPE513   0.0000
     6 C4          32.8460     1.6850    61.2940 C.ar         1 PPE513   0.0000
     7 C4A         33.6770     2.1450    60.0770 C.3          1 PPE513   0.0000
     8 C5          31.5200     2.1870    61.6340 C.ar         1 PPE513   0.0000
     9 C6          30.7400     1.7890    62.7260 C.ar         1 PPE513   0.0000
    10 C5A         30.7960     3.2460    60.7960 C.3          1 PPE513   0.0000
    11 OP4         30.1030     2.7760    59.6920 O.3          1 PPE513   0.0000
    12 P           30.1550     3.4050    58.2080 P.3          1 PPE513   0.0000
    13 OP1         29.6020     2.4970    57.2380 O.co2        1 PPE513   0.0000
    14 OP2         31.5960     3.8650    58.0330 O.co2        1 PPE513  -1.0000
    15 OP3         29.2080     4.5680    58.2830 O.co2        1 PPE513  -1.0000
    16 NA          35.1380     1.8320    60.4450 N.4          1 PPE513   1.0000
    17 CAA         36.0360     1.6580    59.2220 C.3          1 PPE513   0.0000
    18 CBA         36.0620     2.9170    58.3290 C.3          1 PPE513   0.0000
    19 CGA         36.2000     4.2510    59.0660 C.3          1 PPE513   0.0000
    20 CDA         36.8010     5.2880    58.1490 C.2          1 PPE513   0.0000
    21 OE1         36.0720     5.6760    57.2420 O.co2        1 PPE513   0.0000
    22 OE2         37.9830     5.6090    58.4570 O.co2        1 PPE513  -1.0000
    23 CA          37.4740     1.3150    59.6640 C.2          1 PPE513   0.0000
    24 OA          37.6080     1.4580    61.0290 O.co2        1 PPE513   0.0000
    25 OXT         38.4530     0.9230    58.8350 O.co2        1 PPE513  -1.0000
    26 H2A1        33.6563    -1.1813    64.3565 H            1 PPE513   0.0000
    27 H2A2        32.7317    -0.3016    65.3753 H            1 PPE513   0.0000
    28 H2A3        32.0522    -1.4698    64.4587 H            1 PPE513   0.0000
    29 H4          34.7390    -0.6354    62.8635 H            1 PPE513   0.0000
    30 H4A1        33.5570     3.1254    59.9207 H            1 PPE513   0.0000
    31 H4A2        33.4062     1.6411    59.2568 H            1 PPE513   0.0000
    32 H7          29.8374     2.1888    62.8854 H            1 PPE513   0.0000
    33 H5A1        31.4795     3.9004    60.4726 H            1 PPE513   0.0000
    34 H5A2        30.1426     3.7134    61.3914 H            1 PPE513   0.0000
    35 HA1         35.1583     0.9864    60.9784 H            1 PPE513   0.0000
    36 HAA         35.6837     0.8953    58.6796 H            1 PPE513   0.0000
    37 HBA1        35.2093     2.9411    57.8072 H            1 PPE513   0.0000
    38 HBA2        36.8351     2.8319    57.7005 H            1 PPE513   0.0000
    39 HGA1        36.7928     4.1296    59.8621 H            1 PPE513   0.0000
    40 HGA2        35.2970     4.5582    59.3665 H            1 PPE513   0.0000
    41 HA2         35.4955     2.5841    60.9987 H            1 PPE513   0.0000
    42 H17         30.6976     0.5449    64.3548 H            1 PPE513   0.0000
@<TRIPOS>BOND
     1    1    2      ar
     2    1    9      ar
     3    2    3       1
     4    2    4      ar
     5    4    5       1
     6    4    6      ar
     7    6    7       1
     8    6    8      ar
     9    7   16       1
    10    8    9      ar
    11    8   10       1
    12   10   11       1
    13   11   12       1
    14   12   13      ar
    15   12   14      ar
    16   12   15      ar
    17   16   17       1
    18   17   18       1
    19   17   23       1
    20   18   19       1
    21   19   20       1
    22   20   21      ar
    23   20   22      ar
    24   23   24      ar
    25   23   25      ar
    26    3   26       1
    27    3   27       1
    28    3   28       1
    29    5   29       1
    30    7   30       1
    31    7   31       1
    32    9   32       1
    33   10   33       1
    34   10   34       1
    35   19   40       1
    36   16   41       1
    37   16   35       1
    38   17   36       1
    39   18   37       1
    40   18   38       1
    41   19   39       1
    42    1   42       1
@<TRIPOS>SUBSTRUCTURE
     1 PPE513      1 GROUP             4 A     PPE     0 **** PPE A 513
