@<TRIPOS>MOLECULE
4fzv_SAM_1_ligand
   50    52     1     0     0
SMALL
NO_CHARGES


@<TRIPOS>ATOM
     1 N           85.7470     3.5510    21.2400 N.4          1 SAM401   1.0000
     2 CA          86.9620     2.7010    21.6810 C.3          1 SAM401   0.0000
     3 C           87.7120     3.4610    22.7530 C.2          1 SAM401   0.0000
     4 O           87.6340     4.7000    22.8630 O.co2        1 SAM401   0.0000
     5 OXT         88.3980     2.8290    23.5230 O.co2        1 SAM401  -1.0000
     6 CB          88.0010     2.4010    20.6010 C.3          1 SAM401   0.0000
     7 CG          87.1970     1.6180    19.5570 C.3          1 SAM401   0.0000
     8 SD          88.2860     0.9020    18.2980 S.3          1 SAM401   1.0000
     9 CE          89.0380     2.2610    17.3740 C.3          1 SAM401   0.0000
    10 C5'         87.1480     0.1560    17.0620 C.3          1 SAM401   0.0000
    11 C4'         86.4500    -1.0980    17.6250 C.3          1 SAM401   0.0000
    12 O4'         85.5060    -1.6020    16.6630 O.3          1 SAM401   0.0000
    13 C3'         87.3800    -2.2880    17.9340 C.3          1 SAM401   0.0000
    14 O3'         87.3750    -2.4760    19.3620 O.3          1 SAM401   0.0000
    15 C2'         86.7210    -3.4890    17.2240 C.3          1 SAM401   0.0000
    16 O2'         86.5130    -4.6360    18.0510 O.3          1 SAM401   0.0000
    17 C1'         85.2940    -2.9740    16.9580 C.3          1 SAM401   0.0000
    18 N9          84.5490    -3.5210    15.8120 N.pl3        1 SAM401   0.0000
    19 C8          85.0620    -3.9480    14.5700 C.2          1 SAM401   0.0000
    20 N7          83.9870    -4.2930    13.8340 N.2          1 SAM401   0.0000
    21 C5          82.8360    -4.0990    14.5550 C.ar         1 SAM401   0.0000
    22 C6          81.4830    -4.2990    14.3000 C.ar         1 SAM401   0.0000
    23 N6          81.0340    -4.7940    13.1150 N.pl3        1 SAM401   0.0000
    24 N1          80.5550    -3.9720    15.2530 N.ar         1 SAM401   0.0000
    25 C2          80.8960    -3.4530    16.4750 C.ar         1 SAM401   0.0000
    26 N3          82.2380    -3.3070    16.7380 N.ar         1 SAM401   0.0000
    27 C4          83.1890    -3.5950    15.7950 C.ar         1 SAM401   0.0000
    28 H1          85.2388     3.0630    20.5304 H            1 SAM401   0.0000
    29 H2          85.1503     3.7125    22.0260 H            1 SAM401   0.0000
    30 HA          86.6330     1.8379    22.0642 H            1 SAM401   0.0000
    31 HB1         88.7500     1.8483    20.9664 H            1 SAM401   0.0000
    32 HB2         88.3690     3.2455    20.2119 H            1 SAM401   0.0000
    33 HG1         86.5476     2.2361    19.1139 H            1 SAM401   0.0000
    34 HG2         86.6978     0.8818    20.0140 H            1 SAM401   0.0000
    35 HE1         89.6452     1.8904    16.6712 H            1 SAM401   0.0000
    36 HE2         88.3207     2.8067    16.9408 H            1 SAM401   0.0000
    37 HE3         89.5642     2.8379    17.9987 H            1 SAM401   0.0000
    38 H5'1        87.6724    -0.1004    16.2501 H            1 SAM401   0.0000
    39 H5'2        86.4532     0.8300    16.8110 H            1 SAM401   0.0000
    40 H4'         85.9585    -0.8471    18.4590 H            1 SAM401   0.0000
    41 H3'         88.3053    -2.1255    17.5914 H            1 SAM401   0.0000
    42 H15         86.4433    -2.6696    19.6695 H            1 SAM401   0.0000
    43 H2'         87.1949    -3.7242    16.3754 H            1 SAM401   0.0000
    44 H17         85.9170    -4.3918    18.8159 H            1 SAM401   0.0000
    45 H1'         84.7444    -3.0592    17.7891 H            1 SAM401   0.0000
    46 H19         86.0222    -3.9867    14.2933 H            1 SAM401   0.0000
    47 H20         80.0537    -4.9246    12.9670 H            1 SAM401   0.0000
    48 H21         81.6843    -5.0272    12.3920 H            1 SAM401   0.0000
    49 H22         80.2007    -3.1924    17.1448 H            1 SAM401   0.0000
    50 H23         86.0666     4.4269    20.8785 H            1 SAM401   0.0000
@<TRIPOS>BOND
     1    1    2       1
     2    2    3       1
     3    2    6       1
     4    3    4      ar
     5    3    5      ar
     6    6    7       1
     7    7    8       1
     8    8    9       1
     9    8   10       1
    10   10   11       1
    11   11   12       1
    12   11   13       1
    13   12   17       1
    14   13   14       1
    15   13   15       1
    16   15   16       1
    17   15   17       1
    18   17   18       1
    19   18   19       1
    20   18   27       1
    21   19   20       2
    22   20   21       1
    23   21   22      ar
    24   21   27      ar
    25   22   23       1
    26   22   24      ar
    27   24   25      ar
    28   25   26      ar
    29   26   27      ar
    30    1   28       1
    31    1   29       1
    32    2   30       1
    33    1   50       1
    34    6   31       1
    35    6   32       1
    36    7   33       1
    37    7   34       1
    38    9   35       1
    39    9   36       1
    40    9   37       1
    41   10   38       1
    42   10   39       1
    43   11   40       1
    44   13   41       1
    45   14   42       1
    46   15   43       1
    47   16   44       1
    48   17   45       1
    49   19   46       1
    50   23   47       1
    51   23   48       1
    52   25   49       1
@<TRIPOS>SUBSTRUCTURE
     1 SAM401      1 GROUP             4 A     SAM     0 **** SAM A 401
