@<TRIPOS>MOLECULE
1zdf_UPG_1_ligand
   58    60     1     0     0
SMALL
NO_CHARGES


@<TRIPOS>ATOM
     1 N1           7.0400   -32.0350    86.1720 N.pl3        1 UPG411   0.0000
     2 C2           7.6980   -30.8700    86.5740 C.2          1 UPG411   0.0000
     3 N3           7.3470   -30.3740    87.8200 N.pl3        1 UPG411   0.0000
     4 C4           6.3890   -30.9330    88.7210 C.2          1 UPG411   0.0000
     5 C5           5.7340   -32.1470    88.2550 C.2          1 UPG411   0.0000
     6 C6           6.0700   -32.6440    87.0350 C.2          1 UPG411   0.0000
     7 O2           8.5390   -30.3100    85.8710 O.2          1 UPG411   0.0000
     8 O4           6.1950   -30.3580    89.8010 O.2          1 UPG411   0.0000
     9 C1C          7.3720   -32.6260    84.8390 C.3          1 UPG411   0.0000
    10 C2C          8.5980   -33.5580    84.8300 C.3          1 UPG411   0.0000
    11 O2C          9.2980   -33.4520    83.5850 O.3          1 UPG411   0.0000
    12 C3C          7.9470   -34.8970    85.0940 C.3          1 UPG411   0.0000
    13 C4C          6.7360   -34.7880    84.1530 C.3          1 UPG411   0.0000
    14 O4C          6.2740   -33.4300    84.3980 O.3          1 UPG411   0.0000
    15 O3C          8.8610   -35.9060    84.6920 O.3          1 UPG411   0.0000
    16 C5C          5.5390   -35.7260    84.4530 C.3          1 UPG411   0.0000
    17 O5C          5.2630   -35.8730    85.8520 O.3          1 UPG411   0.0000
    18 PA           5.9180   -36.8200    86.9480 P.3          1 UPG411   0.0000
    19 O1A          7.1210   -37.4550    86.3400 O.co2        1 UPG411   0.0000
    20 O2A          6.1980   -35.9710    88.1510 O.co2        1 UPG411  -1.0000
    21 O3A          4.7400   -37.8480    87.1260 O.3          1 UPG411   0.0000
    22 PB           4.6090   -39.4350    86.9490 P.3          1 UPG411   0.0000
    23 O1B          5.7880   -39.8370    85.9410 O.co2        1 UPG411   0.0000
    24 O2B          4.9370   -40.1720    88.1760 O.co2        1 UPG411  -1.0000
    25 O3B          3.2670   -39.5480    86.3390 O.3          1 UPG411   0.0000
    26 C1'          2.4180   -39.0090    85.8600 C.3          1 UPG411   0.0000
    27 C2'          1.0350   -39.6650    85.9020 C.3          1 UPG411   0.0000
    28 C3'          1.0750   -41.0480    85.2360 C.3          1 UPG411   0.0000
    29 C4'          1.6190   -40.9900    83.7990 C.3          1 UPG411   0.0000
    30 C5'          2.9210   -40.1350    83.7750 C.3          1 UPG411   0.0000
    31 C6'          3.4690   -39.8010    82.3660 C.3          1 UPG411   0.0000
    32 O2'          0.5300   -39.8920    87.2540 O.3          1 UPG411   0.0000
    33 O3'         -0.2440   -41.6730    85.2170 O.3          1 UPG411   0.0000
    34 O4'          1.9100   -42.3150    83.3280 O.3          1 UPG411   0.0000
    35 O5'          2.7340   -38.8580    84.4820 O.3          1 UPG411   0.0000
    36 O6'          3.6240   -38.3530    82.1660 O.3          1 UPG411   0.0000
    37 H1           7.8114   -29.5403    88.1187 H            1 UPG411   0.0000
    38 H2           5.0500   -32.6065    88.8216 H            1 UPG411   0.0000
    39 H3           5.6165   -33.4788    86.7227 H            1 UPG411   0.0000
    40 H1C          7.5195   -31.8867    84.1820 H            1 UPG411   0.0000
    41 H2C          9.2097   -33.3225    85.5852 H            1 UPG411   0.0000
    42 H6           9.9907   -32.7339    83.6521 H            1 UPG411   0.0000
    43 H3C          7.6718   -34.9988    86.0500 H            1 UPG411   0.0000
    44 H4C          7.0260   -34.8893    83.2014 H            1 UPG411   0.0000
    45 H9           8.7252   -36.7219    85.2540 H            1 UPG411   0.0000
    46 H5C1         5.7419   -36.6289    84.0740 H            1 UPG411   0.0000
    47 H5C2         4.7252   -35.3527    84.0075 H            1 UPG411   0.0000
    48 H1'          2.3492   -38.0996    86.2701 H            1 UPG411   0.0000
    49 H2'          0.3869   -39.0860    85.4073 H            1 UPG411   0.0000
    50 H3'          1.6846   -41.6311    85.7730 H            1 UPG411   0.0000
    51 H4'          0.9353   -40.5692    83.2027 H            1 UPG411   0.0000
    52 H5'          3.6286   -40.6484    84.2605 H            1 UPG411   0.0000
    53 H6'1         2.8339   -40.1558    81.6799 H            1 UPG411   0.0000
    54 H6'2         4.3605   -40.2399    82.2536 H            1 UPG411   0.0000
    55 H19         -0.3722   -40.3206    87.2053 H            1 UPG411   0.0000
    56 H20         -0.1819   -42.5692    84.7778 H            1 UPG411   0.0000
    57 H21          1.3598   -42.5083    82.5157 H            1 UPG411   0.0000
    58 H6'          4.5405   -38.0732    82.4519 H            1 UPG411   0.0000
@<TRIPOS>BOND
     1    1    2       1
     2    1    6       1
     3    1    9       1
     4    2    3       1
     5    2    7       2
     6    3    4       1
     7    4    5       1
     8    4    8       2
     9    5    6       2
    10    9   10       1
    11    9   14       1
    12   10   11       1
    13   10   12       1
    14   12   13       1
    15   12   15       1
    16   13   14       1
    17   13   16       1
    18   16   17       1
    19   17   18       1
    20   18   19      ar
    21   18   20      ar
    22   18   21       1
    23   21   22       1
    24   22   23      ar
    25   22   24      ar
    26   22   25       1
    27   25   26       1
    28   26   27       1
    29   26   35       1
    30   27   28       1
    31   27   32       1
    32   28   29       1
    33   28   33       1
    34   29   30       1
    35   29   34       1
    36   30   31       1
    37   30   35       1
    38   31   36       1
    39    3   37       1
    40    5   38       1
    41    6   39       1
    42    9   40       1
    43   10   41       1
    44   11   42       1
    45   12   43       1
    46   13   44       1
    47   15   45       1
    48   16   46       1
    49   16   47       1
    50   36   58       1
    51   34   57       1
    52   26   48       1
    53   27   49       1
    54   28   50       1
    55   29   51       1
    56   30   52       1
    57   31   53       1
    58   31   54       1
    59   32   55       1
    60   33   56       1
@<TRIPOS>SUBSTRUCTURE
     1 UPG411      1 GROUP             4 A     UPG     0 **** UPG A 411
