@<TRIPOS>MOLECULE
3oij_SAH_2_ligand
   46    48     1     0     0
SMALL
NO_CHARGES


@<TRIPOS>ATOM
     1 N           24.4270   -10.1390    29.2750 N.4          1 SAH253   1.0000
     2 CA          25.8770   -10.3190    29.1960 C.3          1 SAH253   0.0000
     3 CB          26.3710   -10.0320    27.7830 C.3          1 SAH253   0.0000
     4 CG          27.0790    -8.6970    27.6330 C.3          1 SAH253   0.0000
     5 SD          26.7130    -7.8200    26.0860 S.3          1 SAH253   0.0000
     6 C           26.6570    -9.4430    30.1840 C.2          1 SAH253   0.0000
     7 O           26.1920    -9.0760    31.2680 O.2          1 SAH253   0.0000
     8 C5'         28.4830    -7.5280    25.7730 C.3          1 SAH253   0.0000
     9 C4'         29.2400    -6.4300    26.5470 C.3          1 SAH253   0.0000
    10 O4'         28.6740    -5.1230    26.4240 O.3          1 SAH253   0.0000
    11 C3'         29.4070    -6.7120    28.0440 C.3          1 SAH253   0.0000
    12 O3'         30.5480    -7.4970    28.3310 O.3          1 SAH253   0.0000
    13 C2'         29.4770    -5.3300    28.6710 C.3          1 SAH253   0.0000
    14 O2'         30.8220    -4.9660    28.9050 O.3          1 SAH253   0.0000
    15 C1'         28.8660    -4.3970    27.6320 C.3          1 SAH253   0.0000
    16 N9          27.5720    -3.8620    28.1070 N.pl3        1 SAH253   0.0000
    17 C8          26.3390    -4.4410    27.9290 C.2          1 SAH253   0.0000
    18 N7          25.3920    -3.6640    28.5010 N.2          1 SAH253   0.0000
    19 C5          26.0050    -2.5900    29.0520 C.ar         1 SAH253   0.0000
    20 C6          25.5110    -1.4920    29.7560 C.ar         1 SAH253   0.0000
    21 N6          24.2040    -1.3740    29.9830 N.pl3        1 SAH253   0.0000
    22 N1          26.3900    -0.5280    30.2140 N.ar         1 SAH253   0.0000
    23 C2          27.7430    -0.6620    29.9630 C.ar         1 SAH253   0.0000
    24 N3          28.2300    -1.7520    29.2660 N.ar         1 SAH253   0.0000
    25 C4          27.3760    -2.7020    28.8130 C.ar         1 SAH253   0.0000
    26 H1          24.1176   -10.3304    30.2065 H            1 SAH253   0.0000
    27 H2          24.1944    -9.1969    29.0335 H            1 SAH253   0.0000
    28 HA          26.0805   -11.2755    29.4052 H            1 SAH253   0.0000
    29 HB1         25.5832   -10.0407    27.1671 H            1 SAH253   0.0000
    30 HB2         27.0079   -10.7566    27.5198 H            1 SAH253   0.0000
    31 HG1         28.0648    -8.8600    27.6739 H            1 SAH253   0.0000
    32 HG2         26.8060    -8.1113    28.3961 H            1 SAH253   0.0000
    33 H8          27.5833    -9.1561    29.9398 H            1 SAH253   0.0000
    34 H5'1        28.5702    -7.3068    24.8017 H            1 SAH253   0.0000
    35 H5'2        28.9541    -8.3895    25.9623 H            1 SAH253   0.0000
    36 H4'         30.1599    -6.3841    26.1575 H            1 SAH253   0.0000
    37 H3'         28.5921    -7.1835    28.3811 H            1 SAH253   0.0000
    38 H13         30.6079    -7.6498    29.3174 H            1 SAH253   0.0000
    39 H2'         28.9517    -5.3022    29.5214 H            1 SAH253   0.0000
    40 H15         30.9581    -4.8032    29.8822 H            1 SAH253   0.0000
    41 H1'         29.4937    -3.6372    27.4628 H            1 SAH253   0.0000
    42 H17         26.1686    -5.3027    27.4510 H            1 SAH253   0.0000
    43 H18         23.8534    -0.5854    30.4881 H            1 SAH253   0.0000
    44 H19         23.5732    -2.0740    29.6483 H            1 SAH253   0.0000
    45 H20         28.3774     0.0385    30.2898 H            1 SAH253   0.0000
    46 H21         23.9780   -10.7667    28.6390 H            1 SAH253   0.0000
@<TRIPOS>BOND
     1    1    2       1
     2    2    3       1
     3    2    6       1
     4    3    4       1
     5    4    5       1
     6    5    8       1
     7    6    7       2
     8    8    9       1
     9    9   10       1
    10    9   11       1
    11   10   15       1
    12   11   12       1
    13   11   13       1
    14   13   14       1
    15   13   15       1
    16   15   16       1
    17   16   17       1
    18   16   25       1
    19   17   18       2
    20   18   19       1
    21   19   20      ar
    22   19   25      ar
    23   20   21       1
    24   20   22      ar
    25   22   23      ar
    26   23   24      ar
    27   24   25      ar
    28    1   26       1
    29    1   27       1
    30    2   28       1
    31    3   29       1
    32    3   30       1
    33    4   31       1
    34    4   32       1
    35    6   33       1
    36    8   34       1
    37    8   35       1
    38    9   36       1
    39   11   37       1
    40   12   38       1
    41   13   39       1
    42   14   40       1
    43   15   41       1
    44   17   42       1
    45   21   43       1
    46   21   44       1
    47   23   45       1
    48    1   46       1
@<TRIPOS>SUBSTRUCTURE
     1 SAH253      1 GROUP             4 B     SAH     0 **** SAH B 253
