@<TRIPOS>MOLECULE
2fxe_DR7_1_ligand
  103   105     1     0     0
SMALL
NO_CHARGES


@<TRIPOS>ATOM
     1 CAA          5.9380    -8.2370    18.8300 C.3          1 DR7102   0.0000
     2 OBI          6.3300    -7.5940    17.5800 O.3          1 DR7102   0.0000
     3 CBK          6.7920    -6.3550    17.5790 C.2          1 DR7102   0.0000
     4 OAI          6.9400    -5.7400    18.5940 O.2          1 DR7102   0.0000
     5 N            7.0690    -5.8770    16.3590 N.am         1 DR7102   0.0000
     6 CA           7.4530    -4.4790    16.2070 C.3          1 DR7102   0.0000
     7 CB           8.8880    -4.3870    15.6450 C.3          1 DR7102   0.0000
     8 CAE          9.8620    -4.9150    16.7120 C.3          1 DR7102   0.0000
     9 CG2          9.0620    -5.2260    14.3550 C.3          1 DR7102   0.0000
    10 CG1          9.2430    -2.9220    15.3270 C.3          1 DR7102   0.0000
    11 C            6.4340    -3.7350    15.3450 C.2          1 DR7102   0.0000
    12 O            6.1910    -4.1040    14.1940 O.2          1 DR7102   0.0000
    13 NBG          5.8500    -2.6890    15.9740 N.am         1 DR7102   0.0000
    14 CBT          4.6770    -1.9840    15.4220 C.3          1 DR7102   0.0000
    15 CBA          3.3870    -2.4800    16.0870 C.3          1 DR7102   0.0000
    16 CBO          3.1570    -3.9660    15.8860 C.ar         1 DR7102   0.0000
    17 CAT          2.8010    -4.4580    14.5560 C.ar         1 DR7102   0.0000
    18 CAP          2.6580    -5.8920    14.3620 C.ar         1 DR7102   0.0000
    19 CAN          2.8740    -6.7740    15.5070 C.ar         1 DR7102   0.0000
    20 CAQ          3.1950    -6.2850    16.8440 C.ar         1 DR7102   0.0000
    21 CAU          3.3360    -4.8540    17.0360 C.ar         1 DR7102   0.0000
    22 CBS          4.8520    -0.4690    15.6610 C.3          1 DR7102   0.0000
    23 OAM          4.9650    -0.2290    17.0700 O.3          1 DR7102   0.0000
    24 CBC          6.1180     0.0400    14.9720 C.3          1 DR7102   0.0000
    25 NBW          6.0010    -0.0020    13.5050 N.3          1 DR7102   0.0000
    26 NBH          4.9250     0.8830    13.1800 N.am         1 DR7102   0.0000
    27 CBN          4.1330     0.6350    12.1310 C.2          1 DR7102   0.0000
    28 OAL          4.1540    -0.3960    11.4580 O.2          1 DR7102   0.0000
    29 CBV          3.1660     1.7710    11.8020 C.3          1 DR7102   0.0000
    30 CBY          1.7190     1.2540    11.5940 C.3          1 DR7102   0.0000
    31 CAH          1.5420     0.5020    10.2530 C.3          1 DR7102   0.0000
    32 CAF          1.2920     0.3280    12.7590 C.3          1 DR7102   0.0000
    33 CAG          0.7810     2.4800    11.5760 C.3          1 DR7102   0.0000
    34 NBF          3.6180     2.4820    10.6020 N.am         1 DR7102   0.0000
    35 CBL          3.6250     3.8260    10.4880 C.2          1 DR7102   0.0000
    36 OAJ          3.2660     4.5910    11.3370 O.2          1 DR7102   0.0000
    37 OBJ          4.0950     4.2440     9.3190 O.3          1 DR7102   0.0000
    38 CAB          4.3080     5.6580     9.0300 C.3          1 DR7102   0.0000
    39 CBB          7.3510     0.4450    13.0660 C.3          1 DR7102   0.0000
    40 CBP          7.4630     1.3190    11.8280 C.ar         1 DR7102   0.0000
    41 CAW          7.6940     0.6960    10.5290 C.ar         1 DR7102   0.0000
    42 CAY          7.8400     1.5570     9.3610 C.ar         1 DR7102   0.0000
    43 CAX          7.3370     2.7630    11.9840 C.ar         1 DR7102   0.0000
    44 CAZ          7.4840     3.5920    10.8070 C.ar         1 DR7102   0.0000
    45 CBQ          7.7690     3.0310     9.4850 C.ar         1 DR7102   0.0000
    46 CBR          8.0110     4.0260     8.3340 C.ar         1 DR7102   0.0000
    47 CAV          8.3550     3.6680     6.9500 C.ar         1 DR7102   0.0000
    48 CAR          8.5260     4.7360     5.9700 C.ar         1 DR7102   0.0000
    49 CAO          8.3750     6.1540     6.2710 C.ar         1 DR7102   0.0000
    50 CAS          8.0430     6.4970     7.6400 C.ar         1 DR7102   0.0000
    51 NBD          7.8890     5.4650     8.5630 N.ar         1 DR7102   0.0000
    52 HAA1         5.6153    -9.1644    18.6409 H            1 DR7102   0.0000
    53 HAA2         6.7252    -8.2770    19.4455 H            1 DR7102   0.0000
    54 HAA3         5.2049    -7.7102    19.2602 H            1 DR7102   0.0000
    55 H4           7.0129    -6.4742    15.5589 H            1 DR7102   0.0000
    56 HA           7.4514    -4.0598    17.1149 H            1 DR7102   0.0000
    57 HAE1        10.7980    -4.8626    16.3640 H            1 DR7102   0.0000
    58 HAE2         9.7825    -4.3597    17.5398 H            1 DR7102   0.0000
    59 HAE3         9.6386    -5.8660    16.9258 H            1 DR7102   0.0000
    60 HG21        10.0020    -5.1391    14.0251 H            1 DR7102   0.0000
    61 HG22         8.8656    -6.1863    14.5529 H            1 DR7102   0.0000
    62 HG23         8.4307    -4.8943    13.6540 H            1 DR7102   0.0000
    63 HG11        10.1737    -2.8758    14.9642 H            1 DR7102   0.0000
    64 HG12         8.6023    -2.5636    14.6480 H            1 DR7102   0.0000
    65 HG13         9.1834    -2.3757    16.1625 H            1 DR7102   0.0000
    66 HBG          6.2281    -2.3816    16.8472 H            1 DR7102   0.0000
    67 HBT          4.6250    -2.1561    14.4383 H            1 DR7102   0.0000
    68 HBA1         2.6136    -1.9810    15.6961 H            1 DR7102   0.0000
    69 HBA2         3.4415    -2.2948    17.0682 H            1 DR7102   0.0000
    70 HAT          2.6591    -3.8227    13.7969 H            1 DR7102   0.0000
    71 HAP          2.4175    -6.2658    13.4662 H            1 DR7102   0.0000
    72 HAN          2.7981    -7.7613    15.3675 H            1 DR7102   0.0000
    73 HAQ          3.3146    -6.9195    17.6076 H            1 DR7102   0.0000
    74 HAU          3.5517    -4.4806    17.9383 H            1 DR7102   0.0000
    75 HBS          4.0569     0.0197    15.3018 H            1 DR7102   0.0000
    76 HAM          4.2246     0.3746    17.3658 H            1 DR7102   0.0000
    77 HBC1         6.8897    -0.5315    15.2510 H            1 DR7102   0.0000
    78 HBC2         6.2829     0.9845    15.2560 H            1 DR7102   0.0000
    79 HBH          4.7635     1.6942    13.7420 H            1 DR7102   0.0000
    80 HBV          3.1637     2.4145    12.5674 H            1 DR7102   0.0000
    81 HAH1         0.5956     0.1905    10.1679 H            1 DR7102   0.0000
    82 HAH2         1.7601     1.1166     9.4949 H            1 DR7102   0.0000
    83 HAH3         2.1560    -0.2870    10.2297 H            1 DR7102   0.0000
    84 HAF1         0.3576     0.0070    12.6044 H            1 DR7102   0.0000
    85 HAF2         1.9106    -0.4564    12.8053 H            1 DR7102   0.0000
    86 HAF3         1.3320     0.8353    13.6199 H            1 DR7102   0.0000
    87 HAG1        -0.1623     2.1760    11.4429 H            1 DR7102   0.0000
    88 HAG2         0.8542     2.9685    12.4455 H            1 DR7102   0.0000
    89 HAG3         1.0435     3.0896    10.8280 H            1 DR7102   0.0000
    90 HBF          3.9389     1.9405     9.8250 H            1 DR7102   0.0000
    91 HAB1         4.6644     5.7584     8.1011 H            1 DR7102   0.0000
    92 HAB2         3.4403     6.1488     9.1090 H            1 DR7102   0.0000
    93 HAB3         4.9653     6.0361     9.6819 H            1 DR7102   0.0000
    94 HBB1         7.8926    -0.3781    12.8953 H            1 DR7102   0.0000
    95 HBB2         7.7529     0.9570    13.8252 H            1 DR7102   0.0000
    96 HAW          7.7509    -0.2985    10.4416 H            1 DR7102   0.0000
    97 HAY          7.9904     1.1455     8.4621 H            1 DR7102   0.0000
    98 HAX          7.1541     3.1693    12.8793 H            1 DR7102   0.0000
    99 HAZ          7.3875     4.5830    10.8999 H            1 DR7102   0.0000
   100 HAV          8.4697     2.7106     6.6851 H            1 DR7102   0.0000
   101 HAR          8.7616     4.4785     5.0329 H            1 DR7102   0.0000
   102 HAO          8.4944     6.8554     5.5683 H            1 DR7102   0.0000
   103 HAS          7.9273     7.4514     7.9151 H            1 DR7102   0.0000
@<TRIPOS>BOND
     1    1    2       1
     2    2    3       1
     3    3    4       2
     4    3    5      am
     5    5    6       1
     6    6    7       1
     7    6   11       1
     8    7    8       1
     9    7    9       1
    10    7   10       1
    11   11   12       2
    12   11   13      am
    13   13   14       1
    14   14   15       1
    15   14   22       1
    16   15   16       1
    17   16   17      ar
    18   16   21      ar
    19   17   18      ar
    20   18   19      ar
    21   19   20      ar
    22   20   21      ar
    23   22   23       1
    24   22   24       1
    25   24   25       1
    26   25   26       1
    27   25   39       1
    28   26   27      am
    29   27   28       2
    30   27   29       1
    31   29   30       1
    32   29   34       1
    33   30   31       1
    34   30   32       1
    35   30   33       1
    36   34   35      am
    37   35   36       2
    38   35   37       1
    39   37   38       1
    40   39   40       1
    41   40   41      ar
    42   40   43      ar
    43   41   42      ar
    44   42   45      ar
    45   43   44      ar
    46   44   45      ar
    47   45   46       1
    48   46   47      ar
    49   46   51      ar
    50   47   48      ar
    51   48   49      ar
    52   49   50      ar
    53   50   51      ar
    54    1   52       1
    55    1   53       1
    56    1   54       1
    57    5   55       1
    58    6   56       1
    59    8   57       1
    60    8   58       1
    61    8   59       1
    62    9   60       1
    63    9   61       1
    64    9   62       1
    65   10   63       1
    66   10   64       1
    67   10   65       1
    68   13   66       1
    69   14   67       1
    70   15   68       1
    71   15   69       1
    72   17   70       1
    73   18   71       1
    74   19   72       1
    75   20   73       1
    76   21   74       1
    77   22   75       1
    78   23   76       1
    79   24   77       1
    80   24   78       1
    81   26   79       1
    82   29   80       1
    83   31   81       1
    84   31   82       1
    85   31   83       1
    86   32   84       1
    87   32   85       1
    88   32   86       1
    89   33   87       1
    90   33   88       1
    91   33   89       1
    92   34   90       1
    93   38   91       1
    94   38   92       1
    95   38   93       1
    96   39   94       1
    97   39   95       1
    98   41   96       1
    99   42   97       1
   100   43   98       1
   101   44   99       1
   102   47  100       1
   103   48  101       1
   104   49  102       1
   105   50  103       1
@<TRIPOS>SUBSTRUCTURE
     1 DR7102      1 GROUP             4 A     DR7     0 **** DR7 A 102
