@<TRIPOS>MOLECULE
4at4_T6E_1_ligand
   44    47     1     0     0
SMALL
NO_CHARGES


@<TRIPOS>ATOM
     1 C4          52.9060    28.6960    15.3230 C.ar         1 T6E1839   0.0000
     2 C5          52.0530    28.3980    16.4690 C.ar         1 T6E1839   0.0000
     3 C6          50.8210    27.7030    16.1800 C.ar         1 T6E1839   0.0000
     4 N1          50.4080    27.3150    14.9240 N.ar         1 T6E1839   0.0000
     5 N3          52.5210    28.3140    14.0220 N.ar         1 T6E1839   0.0000
     6 NBF         54.0990    29.3550    15.4090 N.pl3        1 T6E1839   0.0000
     7 C2          51.3100    27.6400    13.9130 C.ar         1 T6E1839   0.0000
     8 CBB         52.1560    28.6440    17.8690 C.2          1 T6E1839   0.0000
     9 CAZ         53.2580    29.2750    18.5370 C.ar         1 T6E1839   0.0000
    10 CAO         53.2260    30.5790    19.1240 C.ar         1 T6E1839   0.0000
    11 CAM         54.3920    31.0800    19.7780 C.ar         1 T6E1839   0.0000
    12 CAN         54.4370    28.4740    18.5830 C.ar         1 T6E1839   0.0000
    13 CAL         55.5880    28.9590    19.2270 C.ar         1 T6E1839   0.0000
    14 CAX         55.5870    30.2810    19.8280 C.ar         1 T6E1839   0.0000
    15 NAT         56.7420    30.8180    20.5000 N.am         1 T6E1839   0.0000
    16 CAV         58.0810    30.3500    20.5270 C.2          1 T6E1839   0.0000
    17 OAD         58.4690    29.3570    19.9430 O.2          1 T6E1839   0.0000
    18 NAU         58.9450    31.1410    21.3110 N.am         1 T6E1839   0.0000
    19 CAY         60.1970    30.6950    21.8080 C.ar         1 T6E1839   0.0000
    20 CAP         61.1920    30.1110    20.9630 C.ar         1 T6E1839   0.0000
    21 CAJ         60.4830    30.8460    23.2130 C.ar         1 T6E1839   0.0000
    22 CAH         61.7320    30.4230    23.7630 C.ar         1 T6E1839   0.0000
    23 CAK         62.6990    29.8350    22.8990 C.ar         1 T6E1839   0.0000
    24 CBA         62.4180    29.6820    21.5110 C.ar         1 T6E1839   0.0000
    25 CBG         63.4610    29.0530    20.6080 C.3          1 T6E1839   0.0000
    26 FAF         64.3100    29.8940    20.0380 F            1 T6E1839   0.0000
    27 FAG         62.9270    28.3790    19.5790 F            1 T6E1839   0.0000
    28 FAE         64.2400    28.1640    21.2110 F            1 T6E1839   0.0000
    29 F1          59.5760    31.3910    24.0080 F            1 T6E1839   0.0000
    30 S           49.9080    27.4120    17.6000 S.3          1 T6E1839   0.0000
    31 C8          51.0980    28.1730    18.5590 C.2          1 T6E1839   0.0000
    32 HBF1        54.6356    29.5274    14.5830 H            1 T6E1839   0.0000
    33 HBF2        54.4359    29.6651    16.2980 H            1 T6E1839   0.0000
    34 H3          51.0533    27.3514    12.9906 H            1 T6E1839   0.0000
    35 HAO         52.3955    31.1340    19.0768 H            1 T6E1839   0.0000
    36 HAM         54.3779    31.9860    20.2011 H            1 T6E1839   0.0000
    37 HAN         54.4447    27.5689    18.1578 H            1 T6E1839   0.0000
    38 HAL         56.4105    28.3919    19.2716 H            1 T6E1839   0.0000
    39 HAT         56.5742    31.6495    21.0296 H            1 T6E1839   0.0000
    40 HAU         58.6581    32.0735    21.5304 H            1 T6E1839   0.0000
    41 HAP         61.0182    30.0070    19.9837 H            1 T6E1839   0.0000
    42 HAH         61.9237    30.5379    24.7377 H            1 T6E1839   0.0000
    43 HAK         63.5769    29.5289    23.2673 H            1 T6E1839   0.0000
    44 H13         51.0168    28.2621    19.5517 H            1 T6E1839   0.0000
@<TRIPOS>BOND
     1    1    2      ar
     2    1    5      ar
     3    1    6       1
     4    2    3      ar
     5    2    8       1
     6    3    4      ar
     7    3   30       1
     8    4    7      ar
     9    5    7      ar
    10    8    9       1
    11    8   31       2
    12    9   10      ar
    13    9   12      ar
    14   10   11      ar
    15   11   14      ar
    16   12   13      ar
    17   13   14      ar
    18   14   15       1
    19   15   16      am
    20   16   17       2
    21   16   18      am
    22   18   19       1
    23   19   20      ar
    24   19   21      ar
    25   20   24      ar
    26   21   22      ar
    27   21   29       1
    28   22   23      ar
    29   23   24      ar
    30   24   25       1
    31   25   26       1
    32   25   27       1
    33   25   28       1
    34   30   31       1
    35    6   32       1
    36    6   33       1
    37    7   34       1
    38   10   35       1
    39   11   36       1
    40   12   37       1
    41   13   38       1
    42   15   39       1
    43   18   40       1
    44   20   41       1
    45   22   42       1
    46   23   43       1
    47   31   44       1
@<TRIPOS>SUBSTRUCTURE
     1 T6E1839     1 GROUP             4 A     T6E     0 **** T6E A1839
