@<TRIPOS>MOLECULE
4qck_ASD_1_ligand
   47    50     1     0     0
SMALL
NO_CHARGES


@<TRIPOS>ATOM
     1 C1         -28.1070    27.4260    18.3290 C.3          1 ASD404   0.0000
     2 C10        -26.8570    26.6560    18.7760 C.3          1 ASD404   0.0000
     3 C11        -27.1410    27.4720    21.1830 C.3          1 ASD404   0.0000
     4 C12        -26.6200    28.4480    22.2440 C.3          1 ASD404   0.0000
     5 C13        -25.1970    28.0880    22.6200 C.3          1 ASD404   0.0000
     6 C14        -24.3640    28.1270    21.3520 C.3          1 ASD404   0.0000
     7 C15        -22.9240    28.1210    21.8760 C.3          1 ASD404   0.0000
     8 C16        -22.9860    29.0310    23.1180 C.3          1 ASD404   0.0000
     9 C17        -24.4610    29.0860    23.4360 C.2          1 ASD404   0.0000
    10 C18        -25.0930    26.7970    23.4290 C.3          1 ASD404   0.0000
    11 C19        -27.2100    25.2410    19.2110 C.3          1 ASD404   0.0000
    12 C2         -28.5750    27.2250    16.8930 C.3          1 ASD404   0.0000
    13 C3         -27.4600    27.1220    15.9020 C.2          1 ASD404   0.0000
    14 C4         -26.1020    26.7570    16.3620 C.2          1 ASD404   0.0000
    15 C5         -25.8280    26.5310    17.6670 C.2          1 ASD404   0.0000
    16 C6         -24.4340    26.1150    18.0510 C.3          1 ASD404   0.0000
    17 C7         -23.9280    27.1070    19.0840 C.3          1 ASD404   0.0000
    18 C8         -24.8250    27.1070    20.3100 C.3          1 ASD404   0.0000
    19 C9         -26.2540    27.4790    19.9300 C.3          1 ASD404   0.0000
    20 O1         -27.6970    27.3270    14.7180 O.2          1 ASD404   0.0000
    21 O2         -25.0000    29.8340    24.2270 O.2          1 ASD404   0.0000
    22 H1         -27.9187    28.4006    18.4500 H            1 ASD404   0.0000
    23 H2         -28.8582    27.1545    18.9306 H            1 ASD404   0.0000
    24 H3         -28.0700    27.7375    20.9252 H            1 ASD404   0.0000
    25 H4         -27.1527    26.5491    21.5679 H            1 ASD404   0.0000
    26 H5         -27.2010    28.3962    23.0563 H            1 ASD404   0.0000
    27 H6         -26.6411    29.3783    21.8779 H            1 ASD404   0.0000
    28 H7         -24.5116    29.0291    20.9465 H            1 ASD404   0.0000
    29 H8         -22.2942    28.4913    21.1932 H            1 ASD404   0.0000
    30 H9         -22.6388    27.1956    22.1254 H            1 ASD404   0.0000
    31 H10        -22.6298    29.9425    22.9123 H            1 ASD404   0.0000
    32 H11        -22.4703    28.6353    23.8780 H            1 ASD404   0.0000
    33 H12        -24.1336    26.6152    23.6448 H            1 ASD404   0.0000
    34 H13        -25.6133    26.8926    24.2776 H            1 ASD404   0.0000
    35 H14        -25.4640    26.0378    22.8943 H            1 ASD404   0.0000
    36 H15        -26.3793    24.7630    19.4965 H            1 ASD404   0.0000
    37 H16        -27.8529    25.2781    19.9761 H            1 ASD404   0.0000
    38 H17        -27.6298    24.7521    18.4463 H            1 ASD404   0.0000
    39 H18        -29.1522    28.0009    16.6383 H            1 ASD404   0.0000
    40 H19        -29.1120    26.3824    16.8517 H            1 ASD404   0.0000
    41 H20        -25.3665    26.6751    15.6895 H            1 ASD404   0.0000
    42 H21        -23.8403    26.1277    17.2464 H            1 ASD404   0.0000
    43 H22        -24.4479    25.1941    18.4405 H            1 ASD404   0.0000
    44 H23        -23.9193    28.0231    18.6832 H            1 ASD404   0.0000
    45 H24        -22.9997    26.8534    19.3560 H            1 ASD404   0.0000
    46 H25        -24.8211    26.1947    20.7196 H            1 ASD404   0.0000
    47 H26        -26.2229    28.4269    19.6129 H            1 ASD404   0.0000
@<TRIPOS>BOND
     1    1    2       1
     2    1   12       1
     3    2   11       1
     4    2   15       1
     5    2   19       1
     6    3    4       1
     7    3   19       1
     8    4    5       1
     9    5    6       1
    10    5    9       1
    11    5   10       1
    12    6    7       1
    13    6   18       1
    14    7    8       1
    15    8    9       1
    16    9   21       2
    17   12   13       1
    18   13   14       1
    19   13   20       2
    20   14   15       2
    21   15   16       1
    22   16   17       1
    23   17   18       1
    24   18   19       1
    25    1   22       1
    26    1   23       1
    27    3   24       1
    28    3   25       1
    29    4   26       1
    30    4   27       1
    31    6   28       1
    32    7   29       1
    33    7   30       1
    34    8   31       1
    35    8   32       1
    36   10   33       1
    37   10   34       1
    38   10   35       1
    39   11   36       1
    40   11   37       1
    41   11   38       1
    42   12   39       1
    43   12   40       1
    44   14   41       1
    45   16   42       1
    46   16   43       1
    47   17   44       1
    48   17   45       1
    49   18   46       1
    50   19   47       1
@<TRIPOS>SUBSTRUCTURE
     1 ASD404      1 GROUP             4 A     ASD     0 **** ASD A 404
