@<TRIPOS>MOLECULE
1rkd_ADP_1_ligand
   39    41     1     0     0
SMALL
NO_CHARGES


@<TRIPOS>ATOM
     1 PB         -28.7060    18.8450    43.4980 P.3          1 ADP310   0.0000
     2 O1B        -28.3530    18.1620    44.7690 O.co2        1 ADP310   0.0000
     3 O2B        -28.2680    20.2660    43.5470 O.co2        1 ADP310  -1.0000
     4 O3B        -28.2690    18.0380    42.2030 O.co2        1 ADP310  -1.0000
     5 PA         -31.4510    19.5400    44.1550 P.3          1 ADP310   0.0000
     6 O1A        -30.9820    20.3360    45.3060 O.co2        1 ADP310   0.0000
     7 O2A        -32.3060    20.4570    43.3080 O.co2        1 ADP310  -1.0000
     8 O3A        -30.2990    18.8330    43.2910 O.3          1 ADP310   0.0000
     9 O5'        -32.2450    18.2300    44.6050 O.3          1 ADP310   0.0000
    10 C5'        -32.3730    17.1050    43.6940 C.3          1 ADP310   0.0000
    11 C4'        -33.4910    16.1800    44.1530 C.3          1 ADP310   0.0000
    12 O4'        -33.1650    15.7410    45.4930 O.3          1 ADP310   0.0000
    13 C3'        -34.8600    16.8640    44.3190 C.3          1 ADP310   0.0000
    14 O3'        -35.5710    17.0320    43.0820 O.3          1 ADP310   0.0000
    15 C2'        -35.5130    15.8830    45.3350 C.3          1 ADP310   0.0000
    16 O2'        -35.8320    14.6220    44.7290 O.3          1 ADP310   0.0000
    17 C1'        -34.3010    15.6700    46.2920 C.3          1 ADP310   0.0000
    18 N9         -34.3450    16.6610    47.3390 N.pl3        1 ADP310   0.0000
    19 C8         -33.5090    17.7160    47.5250 C.2          1 ADP310   0.0000
    20 N7         -33.5900    18.3320    48.6490 N.2          1 ADP310   0.0000
    21 C5         -34.5450    17.6760    49.2800 C.ar         1 ADP310   0.0000
    22 C6         -35.0590    17.9150    50.5250 C.ar         1 ADP310   0.0000
    23 N6         -34.6360    18.8670    51.3600 N.pl3        1 ADP310   0.0000
    24 N1         -36.0520    17.0960    50.9300 N.ar         1 ADP310   0.0000
    25 C2         -36.4800    16.0910    50.0870 C.ar         1 ADP310   0.0000
    26 N3         -36.0670    15.8020    48.8780 N.ar         1 ADP310   0.0000
    27 C4         -35.0730    16.6460    48.5260 C.ar         1 ADP310   0.0000
    28 H5'1       -31.5118    16.5971    43.6736 H            1 ADP310   0.0000
    29 H5'2       -32.5814    17.4449    42.7769 H            1 ADP310   0.0000
    30 H4'        -33.5669    15.3947    43.5386 H            1 ADP310   0.0000
    31 H3'        -34.7345    17.7561    44.7531 H            1 ADP310   0.0000
    32 H5         -36.4473    17.4799    43.2594 H            1 ADP310   0.0000
    33 H2'        -36.2985    16.2886    45.8024 H            1 ADP310   0.0000
    34 H7         -34.9961    14.1999    44.3781 H            1 ADP310   0.0000
    35 H1'        -34.3600    14.7586    46.6993 H            1 ADP310   0.0000
    36 H9         -32.8603    17.9998    46.8189 H            1 ADP310   0.0000
    37 H10        -35.0679    18.9747    52.2555 H            1 ADP310   0.0000
    38 H11        -33.8872    19.4723    51.0900 H            1 ADP310   0.0000
    39 H12        -37.2040    15.5033    50.4482 H            1 ADP310   0.0000
@<TRIPOS>BOND
     1    1    2      ar
     2    1    3      ar
     3    1    4      ar
     4    1    8       1
     5    5    6      ar
     6    5    7      ar
     7    5    8       1
     8    5    9       1
     9    9   10       1
    10   10   11       1
    11   11   12       1
    12   11   13       1
    13   12   17       1
    14   13   14       1
    15   13   15       1
    16   15   16       1
    17   15   17       1
    18   17   18       1
    19   18   19       1
    20   18   27       1
    21   19   20       2
    22   20   21       1
    23   21   22      ar
    24   21   27      ar
    25   22   23       1
    26   22   24      ar
    27   24   25      ar
    28   25   26      ar
    29   26   27      ar
    30   25   39       1
    31   23   38       1
    32   23   37       1
    33   10   28       1
    34   10   29       1
    35   11   30       1
    36   13   31       1
    37   14   32       1
    38   15   33       1
    39   16   34       1
    40   17   35       1
    41   19   36       1
@<TRIPOS>SUBSTRUCTURE
     1 ADP310      1 GROUP             4 A     ADP     0 **** ADP A 310
