@<TRIPOS>MOLECULE
1qr6_NAD_3_ligand
   70    74     1     0     0
SMALL
NO_CHARGES


@<TRIPOS>ATOM
     1 PA          43.5840   -14.4370    27.8660 P.3          1 NAD1601   0.0000
     2 O1A         43.5930   -13.2080    28.6910 O.co2        1 NAD1601   0.0000
     3 O2A         42.5520   -15.4570    28.1390 O.co2        1 NAD1601  -1.0000
     4 O5B         45.0290   -15.1610    27.9670 O.3          1 NAD1601   0.0000
     5 C5B         46.2450   -14.4560    27.6680 C.3          1 NAD1601   0.0000
     6 C4B         47.4200   -15.3130    28.1050 C.3          1 NAD1601   0.0000
     7 O4B         48.6820   -14.6560    27.7610 O.3          1 NAD1601   0.0000
     8 C3B         47.4100   -15.5020    29.6020 C.3          1 NAD1601   0.0000
     9 O3B         47.4770   -16.9020    29.9420 O.3          1 NAD1601   0.0000
    10 C2B         48.6220   -14.7880    30.1060 C.3          1 NAD1601   0.0000
    11 O2B         49.2080   -15.4900    31.2070 O.3          1 NAD1601   0.0000
    12 C1B         49.5370   -14.7270    28.9340 C.3          1 NAD1601   0.0000
    13 N9A         50.4670   -13.5790    28.9970 N.pl3        1 NAD1601   0.0000
    14 C8A         50.1440   -12.2390    29.1220 C.2          1 NAD1601   0.0000
    15 N7A         51.2900   -11.5110    29.1190 N.2          1 NAD1601   0.0000
    16 C5A         52.2440   -12.4070    28.9950 C.ar         1 NAD1601   0.0000
    17 C6A         53.5850   -12.0530    28.9460 C.ar         1 NAD1601   0.0000
    18 N6A         53.9810   -10.7800    29.0170 N.pl3        1 NAD1601   0.0000
    19 N1A         54.4880   -13.0790    28.8180 N.ar         1 NAD1601   0.0000
    20 C2A         54.0510   -14.3790    28.7370 C.ar         1 NAD1601   0.0000
    21 N3A         52.7110   -14.6770    28.7910 N.ar         1 NAD1601   0.0000
    22 C4A         51.7960   -13.6650    28.9200 C.ar         1 NAD1601   0.0000
    23 O3          43.5060   -14.0450    26.3260 O.3          1 NAD1601   0.0000
    24 PN          43.0890   -14.8100    24.9900 P.3          1 NAD1601   0.0000
    25 O1N         41.6190   -14.7130    24.8410 O.co2        1 NAD1601   0.0000
    26 O2N         43.7270   -16.1460    24.9860 O.co2        1 NAD1601  -1.0000
    27 O5D         43.7550   -13.9390    23.8460 O.3          1 NAD1601   0.0000
    28 C5D         45.1560   -13.7080    23.8190 C.3          1 NAD1601   0.0000
    29 C4D         45.5320   -13.2080    22.4520 C.3          1 NAD1601   0.0000
    30 O4D         45.0800   -14.1590    21.4330 O.3          1 NAD1601   0.0000
    31 C3D         44.8660   -11.8780    22.1350 C.3          1 NAD1601   0.0000
    32 O3D         45.8500   -10.8980    21.7830 O.3          1 NAD1601   0.0000
    33 C2D         43.9730   -12.1370    20.9550 C.3          1 NAD1601   0.0000
    34 O2D         43.9620   -11.0220    20.0330 O.3          1 NAD1601   0.0000
    35 C1D         44.5310   -13.3750    20.3340 C.3          1 NAD1601   0.0000
    36 N1N         43.5060   -14.1300    19.5690 N.ar         1 NAD1601   1.0000
    37 C2N         43.6250   -14.1840    18.1590 C.ar         1 NAD1601   0.0000
    38 C3N         42.6820   -14.8610    17.3870 C.ar         1 NAD1601   0.0000
    39 C7N         42.8330   -14.8880    15.8550 C.2          1 NAD1601   0.0000
    40 O7N         43.7600   -14.2950    15.3000 O.2          1 NAD1601   0.0000
    41 N7N         41.8960   -15.5720    15.1990 N.am         1 NAD1601   0.0000
    42 C4N         41.5950   -15.5140    18.0320 C.ar         1 NAD1601   0.0000
    43 C5N         41.4610   -15.4700    19.4460 C.ar         1 NAD1601   0.0000
    44 C6N         42.4090   -14.7800    20.2230 C.ar         1 NAD1601   0.0000
    45 H5B1        46.2603   -13.5861    28.1611 H            1 NAD1601   0.0000
    46 H5B2        46.3013   -14.2828    26.6847 H            1 NAD1601   0.0000
    47 H4B         47.3716   -16.2041    27.6538 H            1 NAD1601   0.0000
    48 H3B         46.5850   -15.0939    29.9930 H            1 NAD1601   0.0000
    49 H5          48.2962   -17.0733    30.4894 H            1 NAD1601   0.0000
    50 H2B         48.3745   -13.8616    30.3896 H            1 NAD1601   0.0000
    51 H7          48.8064   -15.1631    32.0625 H            1 NAD1601   0.0000
    52 H1B         50.0694   -15.5726    28.8952 H            1 NAD1601   0.0000
    53 H8A         49.2188   -11.8680    29.2015 H            1 NAD1601   0.0000
    54 H6A1        54.9550   -10.5565    28.9790 H            1 NAD1601   0.0000
    55 H6A2        53.3037   -10.0500    29.1082 H            1 NAD1601   0.0000
    56 H2A         54.7172   -15.1181    28.6374 H            1 NAD1601   0.0000
    57 H5D1        45.6420   -14.5605    24.0116 H            1 NAD1601   0.0000
    58 H5D2        45.3981   -13.0236    24.5067 H            1 NAD1601   0.0000
    59 H4D         46.5252   -13.1056    22.3957 H            1 NAD1601   0.0000
    60 H3D         44.3269   -11.5642    22.9166 H            1 NAD1601   0.0000
    61 H17         45.5252    -9.9898    22.0469 H            1 NAD1601   0.0000
    62 H2D         43.0421   -12.3147    21.2742 H            1 NAD1601   0.0000
    63 H19         43.2330   -10.3864    20.2872 H            1 NAD1601   0.0000
    64 H1D         45.2741   -13.1202    19.7153 H            1 NAD1601   0.0000
    65 H2N         44.3956   -13.7306    17.7111 H            1 NAD1601   0.0000
    66 H7N1        41.9284   -15.6338    14.2014 H            1 NAD1601   0.0000
    67 H7N2        41.1605   -16.0234    15.7043 H            1 NAD1601   0.0000
    68 H4N         40.9192   -16.0084    17.4854 H            1 NAD1601   0.0000
    69 H5N         40.6917   -15.9302    19.8892 H            1 NAD1601   0.0000
    70 H6N         42.3187   -14.7435    21.2182 H            1 NAD1601   0.0000
@<TRIPOS>BOND
     1    1    2      ar
     2    1    3      ar
     3    1    4       1
     4    1   23       1
     5    4    5       1
     6    5    6       1
     7    6    7       1
     8    6    8       1
     9    7   12       1
    10    8    9       1
    11    8   10       1
    12   10   11       1
    13   10   12       1
    14   12   13       1
    15   13   14       1
    16   13   22       1
    17   14   15       2
    18   15   16       1
    19   16   17      ar
    20   16   22      ar
    21   17   18       1
    22   17   19      ar
    23   19   20      ar
    24   20   21      ar
    25   21   22      ar
    26   23   24       1
    27   24   25      ar
    28   24   26      ar
    29   24   27       1
    30   27   28       1
    31   28   29       1
    32   29   30       1
    33   29   31       1
    34   30   35       1
    35   31   32       1
    36   31   33       1
    37   33   34       1
    38   33   35       1
    39   35   36       1
    40   36   37      ar
    41   36   44      ar
    42   37   38      ar
    43   38   39       1
    44   38   42      ar
    45   39   40       2
    46   39   41      am
    47   42   43      ar
    48   43   44      ar
    49   44   70       1
    50    5   45       1
    51    5   46       1
    52    6   47       1
    53    8   48       1
    54    9   49       1
    55   10   50       1
    56   11   51       1
    57   12   52       1
    58   14   53       1
    59   18   54       1
    60   18   55       1
    61   20   56       1
    62   43   69       1
    63   28   57       1
    64   28   58       1
    65   29   59       1
    66   31   60       1
    67   32   61       1
    68   33   62       1
    69   34   63       1
    70   35   64       1
    71   37   65       1
    72   41   66       1
    73   41   67       1
    74   42   68       1
@<TRIPOS>SUBSTRUCTURE
     1 NAD1601     1 GROUP             4 B     NAD     0 **** NAD B1601
