@<TRIPOS>MOLECULE
1w8d_NAP_3_ligand
   73    77     1     0     0
SMALL
NO_CHARGES


@<TRIPOS>ATOM
     1 PA           0.6480   -16.9160    21.3360 P.3          1 NAP1329   0.0000
     2 O1A          1.4680   -15.8110    20.7490 O.co2        1 NAP1329   0.0000
     3 O2A         -0.3300   -16.4340    22.4390 O.co2        1 NAP1329  -1.0000
     4 O5B          1.6120   -18.0490    21.9330 O.3          1 NAP1329   0.0000
     5 C5B          2.5040   -17.6660    22.9430 C.3          1 NAP1329   0.0000
     6 C4B          3.1630   -18.9250    23.4570 C.3          1 NAP1329   0.0000
     7 O4B          4.3500   -18.5340    24.1060 O.3          1 NAP1329   0.0000
     8 C3B          2.2750   -19.6150    24.4740 C.3          1 NAP1329   0.0000
     9 O3B          2.3190   -21.0070    24.2330 O.3          1 NAP1329   0.0000
    10 C2B          2.9110   -19.2540    25.8000 C.3          1 NAP1329   0.0000
    11 O2B          2.8270   -20.3220    26.7090 O.3          1 NAP1329   0.0000
    12 C1B          4.3610   -18.9470    25.4450 C.3          1 NAP1329   0.0000
    13 N9A          4.9390   -17.8810    26.2790 N.pl3        1 NAP1329   0.0000
    14 C8A          4.5030   -16.5940    26.4330 C.2          1 NAP1329   0.0000
    15 N7A          5.3360   -15.9640    27.2910 N.2          1 NAP1329   0.0000
    16 C5A          6.2790   -16.8300    27.6970 C.ar         1 NAP1329   0.0000
    17 C6A          7.3590   -16.7230    28.5610 C.ar         1 NAP1329   0.0000
    18 N6A          7.6860   -15.5670    29.1150 N.pl3        1 NAP1329   0.0000
    19 N1A          8.1750   -17.8030    28.7640 N.ar         1 NAP1329   0.0000
    20 C2A          7.9280   -18.9980    28.1270 C.ar         1 NAP1329   0.0000
    21 N3A          6.8580   -19.1070    27.2700 N.ar         1 NAP1329   0.0000
    22 C4A          6.0420   -18.0370    27.0630 C.ar         1 NAP1329   0.0000
    23 O3          -0.1150   -17.7500    20.1840 O.3          1 NAP1329   0.0000
    24 PN           0.5870   -18.2860    18.8290 P.3          1 NAP1329   0.0000
    25 O1N         -0.1170   -17.5940    17.7250 O.co2        1 NAP1329   0.0000
    26 O2N          0.6130   -19.7740    18.8970 O.co2        1 NAP1329  -1.0000
    27 O5D          2.1190   -17.7700    18.8300 O.3          1 NAP1329   0.0000
    28 C5D          3.1580   -18.5170    18.2170 C.3          1 NAP1329   0.0000
    29 C4D          4.1510   -17.6480    17.4340 C.3          1 NAP1329   0.0000
    30 O4D          3.6410   -17.2780    16.1610 O.3          1 NAP1329   0.0000
    31 C3D          4.5210   -16.3630    18.1570 C.3          1 NAP1329   0.0000
    32 O3D          5.9260   -16.2490    18.2180 O.3          1 NAP1329   0.0000
    33 C2D          3.9140   -15.2600    17.3130 C.3          1 NAP1329   0.0000
    34 O2D          4.7160   -14.1020    17.3270 O.3          1 NAP1329   0.0000
    35 C1D          3.8130   -15.8910    15.9280 C.3          1 NAP1329   0.0000
    36 N1N          2.7020   -15.3310    15.1230 N.ar         1 NAP1329   1.0000
    37 C2N          1.4650   -15.9230    15.1090 C.ar         1 NAP1329   0.0000
    38 C3N          0.4280   -15.3830    14.3490 C.ar         1 NAP1329   0.0000
    39 C7N         -0.9360   -16.0130    14.3610 C.2          1 NAP1329   0.0000
    40 O7N         -1.9060   -15.5590    13.4470 O.2          1 NAP1329   0.0000
    41 N7N         -1.2050   -16.9870    15.2300 N.am         1 NAP1329   0.0000
    42 C4N          0.6480   -14.2300    13.5940 C.ar         1 NAP1329   0.0000
    43 C5N          1.9030   -13.6300    13.6090 C.ar         1 NAP1329   0.0000
    44 C6N          2.9180   -14.1960    14.3830 C.ar         1 NAP1329   0.0000
    45 P2B          2.5090   -19.9970    28.2460 P.3          1 NAP1329   0.0000
    46 O1X          1.3670   -19.0360    28.2650 O.co2        1 NAP1329   0.0000
    47 O2X          2.1680   -21.3220    28.9660 O.co2        1 NAP1329  -1.0000
    48 O3X          3.7710   -19.4120    28.9210 O.co2        1 NAP1329  -1.0000
    49 H5B1         2.0088   -17.2115    23.6834 H            1 NAP1329   0.0000
    50 H5B2         3.1944   -17.0443    22.5730 H            1 NAP1329   0.0000
    51 H4B          3.3690   -19.5438    22.6989 H            1 NAP1329   0.0000
    52 H3B          1.3371   -19.2720    24.4216 H            1 NAP1329   0.0000
    53 H5           1.5959   -21.2568    23.5890 H            1 NAP1329   0.0000
    54 H2B          2.4711   -18.4415    26.1825 H            1 NAP1329   0.0000
    55 H1B          4.9107   -19.7775    25.5347 H            1 NAP1329   0.0000
    56 H8A          3.7049   -16.1886    25.9873 H            1 NAP1329   0.0000
    57 H6A1         8.4688   -15.5133    29.7350 H            1 NAP1329   0.0000
    58 H6A2         7.1504   -14.7468    28.9138 H            1 NAP1329   0.0000
    59 H2A          8.5247   -19.7844    28.2869 H            1 NAP1329   0.0000
    60 H5D1         2.7462   -19.1748    17.5864 H            1 NAP1329   0.0000
    61 H5D2         3.6592   -19.0075    18.9299 H            1 NAP1329   0.0000
    62 H4D          4.9868   -18.1787    17.2932 H            1 NAP1329   0.0000
    63 H3D          4.1295   -16.3546    19.0771 H            1 NAP1329   0.0000
    64 H16          6.3027   -17.0318    18.7133 H            1 NAP1329   0.0000
    65 H2D          2.9989   -15.0408    17.6515 H            1 NAP1329   0.0000
    66 H18          5.0056   -13.8858    16.3946 H            1 NAP1329   0.0000
    67 H1D          4.6740   -15.7466    15.4403 H            1 NAP1329   0.0000
    68 H2N          1.3052   -16.7495    15.6488 H            1 NAP1329   0.0000
    69 H7N1        -2.1111   -17.4098    15.2424 H            1 NAP1329   0.0000
    70 H7N2        -0.5007   -17.2950    15.8696 H            1 NAP1329   0.0000
    71 H4N         -0.0911   -13.8380    13.0462 H            1 NAP1329   0.0000
    72 H5N          2.0760   -12.8041    13.0724 H            1 NAP1329   0.0000
    73 H6N          3.8205   -13.7655    14.3983 H            1 NAP1329   0.0000
@<TRIPOS>BOND
     1    1    2      ar
     2    1    3      ar
     3    1    4       1
     4    1   23       1
     5    4    5       1
     6    5    6       1
     7    6    7       1
     8    6    8       1
     9    7   12       1
    10    8    9       1
    11    8   10       1
    12   10   11       1
    13   10   12       1
    14   11   45       1
    15   12   13       1
    16   13   14       1
    17   13   22       1
    18   14   15       2
    19   15   16       1
    20   16   17      ar
    21   16   22      ar
    22   17   18       1
    23   17   19      ar
    24   19   20      ar
    25   20   21      ar
    26   21   22      ar
    27   23   24       1
    28   24   25      ar
    29   24   26      ar
    30   24   27       1
    31   27   28       1
    32   28   29       1
    33   29   30       1
    34   29   31       1
    35   30   35       1
    36   31   32       1
    37   31   33       1
    38   33   34       1
    39   33   35       1
    40   35   36       1
    41   36   37      ar
    42   36   44      ar
    43   37   38      ar
    44   38   39       1
    45   38   42      ar
    46   39   40       2
    47   39   41      am
    48   42   43      ar
    49   43   44      ar
    50   45   46      ar
    51   45   47      ar
    52   45   48      ar
    53   43   72       1
    54    5   49       1
    55    5   50       1
    56    6   51       1
    57    8   52       1
    58    9   53       1
    59   10   54       1
    60   12   55       1
    61   14   56       1
    62   18   57       1
    63   18   58       1
    64   20   59       1
    65   44   73       1
    66   28   60       1
    67   28   61       1
    68   29   62       1
    69   31   63       1
    70   32   64       1
    71   33   65       1
    72   34   66       1
    73   35   67       1
    74   37   68       1
    75   41   69       1
    76   41   70       1
    77   42   71       1
@<TRIPOS>SUBSTRUCTURE
     1 NAP1329     1 GROUP             4 C     NAP     0 **** NAP C1329
