@<TRIPOS>MOLECULE
3mdd_FAD_1_ligand
   84    89     1     0     0
SMALL
NO_CHARGES


@<TRIPOS>ATOM
     1 PA          40.0680    -5.6610   -14.2460 P.3          1 FAD399   0.0000
     2 O1A         40.8320    -4.4120   -14.4510 O.co2        1 FAD399   0.0000
     3 O2A         40.8260    -6.9390   -14.2210 O.co2        1 FAD399  -1.0000
     4 O5B         39.3430    -5.5070   -12.8350 O.3          1 FAD399   0.0000
     5 C5B         38.6650    -6.5670   -12.1770 C.3          1 FAD399   0.0000
     6 C4B         37.7540    -5.9620   -11.1140 C.3          1 FAD399   0.0000
     7 O4B         38.5960    -5.3760   -10.0820 O.3          1 FAD399   0.0000
     8 C3B         36.8540    -4.8410   -11.6080 C.3          1 FAD399   0.0000
     9 O3B         35.5670    -4.9090   -11.0110 O.3          1 FAD399   0.0000
    10 C2B         37.5960    -3.5740   -11.1970 C.3          1 FAD399   0.0000
    11 O2B         36.7260    -2.4990   -10.9390 O.3          1 FAD399   0.0000
    12 C1B         38.3260    -4.0070    -9.9290 C.3          1 FAD399   0.0000
    13 N9A         39.5880    -3.3030    -9.7320 N.pl3        1 FAD399   0.0000
    14 C8A         40.7130    -3.2590   -10.5080 C.2          1 FAD399   0.0000
    15 N7A         41.6670    -2.5010   -10.0340 N.2          1 FAD399   0.0000
    16 C5A         41.1390    -2.0020    -8.8570 C.ar         1 FAD399   0.0000
    17 C6A         41.6640    -1.1280    -7.8820 C.ar         1 FAD399   0.0000
    18 N6A         42.8890    -0.5890    -7.9500 N.pl3        1 FAD399   0.0000
    19 N1A         40.8790    -0.8400    -6.8210 N.ar         1 FAD399   0.0000
    20 C2A         39.6590    -1.3840    -6.7580 C.ar         1 FAD399   0.0000
    21 N3A         39.0600    -2.2140    -7.6110 N.ar         1 FAD399   0.0000
    22 C4A         39.8630    -2.4870    -8.6510 C.ar         1 FAD399   0.0000
    23 N1          38.1510    -1.6850   -24.1200 N.2          1 FAD399   0.0000
    24 C2          38.6510    -0.9360   -25.1530 C.2          1 FAD399   0.0000
    25 O2          39.7950    -0.5160   -25.0940 O.2          1 FAD399   0.0000
    26 N3          37.8580    -0.6570   -26.2520 N.pl3        1 FAD399   0.0000
    27 C4          36.5550    -1.1040   -26.3470 C.2          1 FAD399   0.0000
    28 O4          35.9090    -0.8440   -27.3340 O.2          1 FAD399   0.0000
    29 C4X         36.0300    -1.8660   -25.2230 C.2          1 FAD399   0.0000
    30 N5          34.7240    -2.3940   -25.2650 N.2          1 FAD399   0.0000
    31 C5X         34.3500    -3.2940   -24.3220 C.ar         1 FAD399   0.0000
    32 C6          33.1360    -3.9610   -24.4830 C.ar         1 FAD399   0.0000
    33 C7          32.7250    -4.9120   -23.5310 C.ar         1 FAD399   0.0000
    34 C7M         31.4030    -5.6380   -23.7110 C.3          1 FAD399   0.0000
    35 C8          33.5290    -5.1870   -22.4040 C.ar         1 FAD399   0.0000
    36 C8M         33.0660    -6.2080   -21.3820 C.3          1 FAD399   0.0000
    37 C9          34.7280    -4.5280   -22.2310 C.ar         1 FAD399   0.0000
    38 C9A         35.1540    -3.5930   -23.1750 C.ar         1 FAD399   0.0000
    39 N10         36.3730    -2.8960   -23.0680 N.pl3        1 FAD399   0.0000
    40 C10         36.8730    -2.1470   -24.1270 C.2          1 FAD399   0.0000
    41 C1'         37.1630    -3.2370   -21.8700 C.3          1 FAD399   0.0000
    42 C2'         36.9980    -2.3870   -20.6460 C.3          1 FAD399   0.0000
    43 O2'         37.7820    -1.1900   -20.8270 O.3          1 FAD399   0.0000
    44 C3'         37.4460    -3.1620   -19.4210 C.3          1 FAD399   0.0000
    45 O3'         36.6810    -4.4020   -19.3990 O.3          1 FAD399   0.0000
    46 C4'         37.2230    -2.4480   -18.1020 C.3          1 FAD399   0.0000
    47 O4'         38.1150    -1.3000   -18.0590 O.3          1 FAD399   0.0000
    48 C5'         37.6640    -3.3580   -16.9700 C.3          1 FAD399   0.0000
    49 O5'         39.0430    -3.8580   -17.0050 O.3          1 FAD399   0.0000
    50 P           39.2440    -5.4550   -16.8840 P.3          1 FAD399   0.0000
    51 O1P         38.1870    -6.0860   -17.7060 O.co2        1 FAD399   0.0000
    52 O2P         40.6540    -5.7440   -17.1700 O.co2        1 FAD399  -1.0000
    53 O3P         38.9350    -5.7800   -15.3540 O.3          1 FAD399   0.0000
    54 H5B1        39.3292    -7.1778   -11.7460 H            1 FAD399   0.0000
    55 H5B2        38.1188    -7.0816   -12.8380 H            1 FAD399   0.0000
    56 H4B         37.1916    -6.6840   -10.7110 H            1 FAD399   0.0000
    57 H3B         36.7719    -4.8817   -12.6038 H            1 FAD399   0.0000
    58 H5          35.1393    -5.7835   -11.2396 H            1 FAD399   0.0000
    59 H2B         38.2566    -3.3189   -11.9031 H            1 FAD399   0.0000
    60 H7          35.8526    -2.8505   -10.6019 H            1 FAD399   0.0000
    61 H1B         37.7344    -3.8669    -9.1350 H            1 FAD399   0.0000
    62 H8A         40.7989    -3.7645   -11.3665 H            1 FAD399   0.0000
    63 H6A1        43.2060     0.0248    -7.2270 H            1 FAD399   0.0000
    64 H6A2        43.4861    -0.8005    -8.7238 H            1 FAD399   0.0000
    65 H2A         39.1186    -1.1316    -5.9553 H            1 FAD399   0.0000
    66 H13         38.2402    -0.1150   -27.0004 H            1 FAD399   0.0000
    67 H14         32.5578    -3.7635   -25.2747 H            1 FAD399   0.0000
    68 H7M1        31.2656    -6.2736   -22.9513 H            1 FAD399   0.0000
    69 H7M2        30.6568    -4.9725   -23.7279 H            1 FAD399   0.0000
    70 H7M3        31.4162    -6.1459   -24.5723 H            1 FAD399   0.0000
    71 H8M1        33.7465    -6.2821   -20.6530 H            1 FAD399   0.0000
    72 H8M2        32.1915    -5.9178   -20.9935 H            1 FAD399   0.0000
    73 H8M3        32.9549    -7.0972   -21.8259 H            1 FAD399   0.0000
    74 H21         35.2926    -4.7204   -21.4284 H            1 FAD399   0.0000
    75 H1'1        38.1278    -3.1978   -22.1302 H            1 FAD399   0.0000
    76 H1'2        36.9245    -4.1739   -21.6145 H            1 FAD399   0.0000
    77 H2'         36.0348    -2.1381   -20.5447 H            1 FAD399   0.0000
    78 H25         38.5725    -1.3934   -21.4048 H            1 FAD399   0.0000
    79 H3'         38.4175    -3.3809   -19.5121 H            1 FAD399   0.0000
    80 H27         37.2237    -5.1208   -18.9645 H            1 FAD399   0.0000
    81 H4'         36.2681    -2.1710   -17.9951 H            1 FAD399   0.0000
    82 H29         38.2740    -0.9665   -18.9882 H            1 FAD399   0.0000
    83 H5'1        37.0566    -4.1524   -16.9696 H            1 FAD399   0.0000
    84 H5'2        37.5502    -2.8510   -16.1156 H            1 FAD399   0.0000
@<TRIPOS>BOND
     1    1    2      ar
     2    1    3      ar
     3    1    4       1
     4    1   53       1
     5    4    5       1
     6    5    6       1
     7    6    7       1
     8    6    8       1
     9    7   12       1
    10    8    9       1
    11    8   10       1
    12   10   11       1
    13   10   12       1
    14   12   13       1
    15   13   14       1
    16   13   22       1
    17   14   15       2
    18   15   16       1
    19   16   17      ar
    20   16   22      ar
    21   17   18       1
    22   17   19      ar
    23   19   20      ar
    24   20   21      ar
    25   21   22      ar
    26   23   24       1
    27   23   40       2
    28   24   25       2
    29   24   26       1
    30   26   27       1
    31   27   28       2
    32   27   29       1
    33   29   30       2
    34   29   40       1
    35   30   31       1
    36   31   32      ar
    37   31   38      ar
    38   32   33      ar
    39   33   34       1
    40   33   35      ar
    41   35   36       1
    42   35   37      ar
    43   37   38      ar
    44   38   39       1
    45   39   40       1
    46   39   41       1
    47   41   42       1
    48   42   43       1
    49   42   44       1
    50   44   45       1
    51   44   46       1
    52   46   47       1
    53   46   48       1
    54   48   49       1
    55   49   50       1
    56   50   51      ar
    57   50   52      ar
    58   50   53       1
    59   48   84       1
    60    5   54       1
    61    5   55       1
    62    6   56       1
    63    8   57       1
    64    9   58       1
    65   10   59       1
    66   11   60       1
    67   12   61       1
    68   14   62       1
    69   18   63       1
    70   18   64       1
    71   20   65       1
    72   26   66       1
    73   32   67       1
    74   34   68       1
    75   34   69       1
    76   34   70       1
    77   36   71       1
    78   36   72       1
    79   36   73       1
    80   37   74       1
    81   41   75       1
    82   41   76       1
    83   42   77       1
    84   43   78       1
    85   44   79       1
    86   45   80       1
    87   46   81       1
    88   47   82       1
    89   48   83       1
@<TRIPOS>SUBSTRUCTURE
     1 FAD399      1 GROUP             4 A     FAD     0 **** FAD A 399
