@<TRIPOS>MOLECULE
3tnf_GNP_1_ligand
   45    47     1     0     0
SMALL
NO_CHARGES


@<TRIPOS>ATOM
     1 PG          33.4080    -3.4660    18.3040 P.3          1 GNP200   0.0000
     2 O1G         32.3870    -4.2610    19.0710 O.co2        1 GNP200   0.0000
     3 O2G         34.8450    -3.4080    18.8390 O.co2        1 GNP200  -1.0000
     4 O3G         32.7420    -2.1330    18.0570 O.co2        1 GNP200  -1.0000
     5 N3B         33.6260    -4.1730    16.8500 N.3          1 GNP200   0.0000
     6 PB          34.5700    -3.5900    15.6600 P.3          1 GNP200   0.0000
     7 O1B         33.8100    -2.5850    14.8670 O.co2        1 GNP200   0.0000
     8 O2B         35.8040    -3.2190    16.4080 O.co2        1 GNP200  -1.0000
     9 O3A         34.9570    -4.6990    14.6540 O.3          1 GNP200   0.0000
    10 PA          36.2240    -5.5830    14.7440 P.3          1 GNP200   0.0000
    11 O1A         37.3250    -4.7500    14.2170 O.co2        1 GNP200   0.0000
    12 O2A         36.4350    -6.2300    16.0870 O.co2        1 GNP200  -1.0000
    13 O5'         35.9800    -6.7800    13.7440 O.3          1 GNP200   0.0000
    14 C5'         34.8020    -7.5200    13.8150 C.3          1 GNP200   0.0000
    15 C4'         35.0670    -8.9080    13.2350 C.3          1 GNP200   0.0000
    16 O4'         35.0750    -8.8950    11.7930 O.3          1 GNP200   0.0000
    17 C3'         36.3740    -9.5790    13.6420 C.3          1 GNP200   0.0000
    18 O3'         36.1220   -10.9660    13.7430 O.3          1 GNP200   0.0000
    19 C2'         37.3150    -9.3190    12.4730 C.3          1 GNP200   0.0000
    20 O2'         38.2740   -10.3520    12.2780 O.3          1 GNP200   0.0000
    21 C1'         36.3560    -9.2860    11.2990 C.3          1 GNP200   0.0000
    22 N9          36.7240    -8.3260    10.2580 N.pl3        1 GNP200   0.0000
    23 C8          37.0420    -6.9890    10.4180 C.2          1 GNP200   0.0000
    24 N7          37.2940    -6.3670     9.2940 N.2          1 GNP200   0.0000
    25 C5          37.1340    -7.3550     8.3280 C.2          1 GNP200   0.0000
    26 C6          37.2870    -7.2740     6.9080 C.2          1 GNP200   0.0000
    27 O6          37.6070    -6.2790     6.2360 O.2          1 GNP200   0.0000
    28 N1          37.0160    -8.4990     6.2870 N.pl3        1 GNP200   0.0000
    29 C2          36.6600    -9.6530     6.9610 C.2          1 GNP200   0.0000
    30 N2          36.4420   -10.7330     6.2140 N.pl3        1 GNP200   0.0000
    31 N3          36.5230    -9.7440     8.2860 N.2          1 GNP200   0.0000
    32 C4          36.7720    -8.5600     8.9080 C.2          1 GNP200   0.0000
    33 H3B         33.9812    -5.0865    17.0485 H            1 GNP200   0.0000
    34 H5'1        34.0852    -7.0648    13.2869 H            1 GNP200   0.0000
    35 H5'2        34.5122    -7.6024    14.7685 H            1 GNP200   0.0000
    36 H4'         34.3189    -9.5041    13.5266 H            1 GNP200   0.0000
    37 H3'         36.7326    -9.2042    14.4969 H            1 GNP200   0.0000
    38 H6          36.9553   -11.4731    13.5227 H            1 GNP200   0.0000
    39 H2'         37.7694    -8.4346    12.5791 H            1 GNP200   0.0000
    40 H8          39.0952   -10.1495    12.8114 H            1 GNP200   0.0000
    41 H1'         36.2915   -10.2000    10.8985 H            1 GNP200   0.0000
    42 H10         37.0762    -6.5391    11.3104 H            1 GNP200   0.0000
    43 H11         37.0843    -8.5425     5.2903 H            1 GNP200   0.0000
    44 H12         36.1817   -11.5961     6.6468 H            1 GNP200   0.0000
    45 H13         36.5385   -10.6812     5.2200 H            1 GNP200   0.0000
@<TRIPOS>BOND
     1    1    2      ar
     2    1    3      ar
     3    1    4      ar
     4    1    5       1
     5    5    6       1
     6    6    7      ar
     7    6    8      ar
     8    6    9       1
     9    9   10       1
    10   10   11      ar
    11   10   12      ar
    12   10   13       1
    13   13   14       1
    14   14   15       1
    15   15   16       1
    16   15   17       1
    17   16   21       1
    18   17   18       1
    19   17   19       1
    20   19   20       1
    21   19   21       1
    22   21   22       1
    23   22   23       1
    24   22   32       1
    25   23   24       2
    26   24   25       1
    27   25   26       1
    28   25   32       2
    29   26   27       2
    30   26   28       1
    31   28   29       1
    32   29   30       1
    33   29   31       2
    34   31   32       1
    35   30   45       1
    36   30   44       1
    37    5   33       1
    38   28   43       1
    39   23   42       1
    40   14   34       1
    41   14   35       1
    42   15   36       1
    43   17   37       1
    44   18   38       1
    45   19   39       1
    46   20   40       1
    47   21   41       1
@<TRIPOS>SUBSTRUCTURE
     1 GNP200      1 GROUP             4 A     GNP     0 **** GNP A 200
