@<TRIPOS>MOLECULE
5epo_TUD_4_ligand
   78    81     1     0     0
SMALL
NO_CHARGES


@<TRIPOS>ATOM
     1 C1           4.8900    21.8010    35.5550 C.3          1 TUD302   0.0000
     2 C2           4.3330    22.3290    34.2400 C.3          1 TUD302   0.0000
     3 C3           2.8710    21.9430    34.0200 C.3          1 TUD302   0.0000
     4 O3           2.4680    22.4970    32.8090 O.3          1 TUD302   0.0000
     5 C4           2.6690    20.4250    34.0750 C.3          1 TUD302   0.0000
     6 C5           3.2020    19.9420    35.4070 C.3          1 TUD302   0.0000
     7 C6           2.9210    18.4570    35.4930 C.3          1 TUD302   0.0000
     8 C7           3.9050    17.5750    34.7590 C.3          1 TUD302   0.0000
     9 O7           3.5010    17.4070    33.4200 O.3          1 TUD302   0.0000
    10 C8           5.3850    18.0530    34.8480 C.3          1 TUD302   0.0000
    11 C9           5.6220    19.5470    34.7390 C.3          1 TUD302   0.0000
    12 C10          4.7040    20.2970    35.6970 C.3          1 TUD302   0.0000
    13 C11          7.1300    19.9190    34.7930 C.3          1 TUD302   0.0000
    14 C12          8.0010    19.0850    33.8530 C.3          1 TUD302   0.0000
    15 C13          7.7530    17.6090    34.0590 C.3          1 TUD302   0.0000
    16 C14          6.2720    17.3190    33.8640 C.3          1 TUD302   0.0000
    17 C15          6.1620    15.8190    33.9370 C.3          1 TUD302   0.0000
    18 C16          7.4680    15.3470    33.2940 C.3          1 TUD302   0.0000
    19 C17          8.3300    16.5890    33.0770 C.3          1 TUD302   0.0000
    20 C18          8.1930    17.2710    35.4690 C.3          1 TUD302   0.0000
    21 C19          5.0110    19.9720    37.1870 C.3          1 TUD302   0.0000
    22 C20          9.8060    16.2930    33.0500 C.3          1 TUD302   0.0000
    23 C21         10.6380    17.5740    32.9140 C.3          1 TUD302   0.0000
    24 C22         10.1900    15.2500    32.0000 C.3          1 TUD302   0.0000
    25 C23         11.6190    14.7320    32.1300 C.3          1 TUD302   0.0000
    26 O25         11.6090    14.0020    29.9080 O.2          1 TUD302   0.0000
    27 C24         12.2020    14.0890    30.9110 C.2          1 TUD302   0.0000
    28 N26         13.4300    13.5940    31.0300 N.am         1 TUD302   0.0000
    29 C25         14.2490    13.0130    29.9900 C.3          1 TUD302   0.0000
    30 C26         14.6870    14.0980    29.0230 C.3          1 TUD302   0.0000
    31 S27         16.1520    14.8890    29.2160 S.o2         1 TUD302   0.0000
    32 O28         17.1260    13.9270    29.4960 O.co2        1 TUD302   0.0000
    33 O29         16.1640    15.9650    30.1550 O.co2        1 TUD302   0.0000
    34 O30         16.3790    15.4210    27.7290 O.co2        1 TUD302  -1.0000
    35 H1           4.4185    22.2563    36.3102 H            1 TUD302   0.0000
    36 H2           5.8670    22.0099    35.5977 H            1 TUD302   0.0000
    37 H3           4.8785    21.9565    33.4892 H            1 TUD302   0.0000
    38 H4           4.4037    23.3265    34.2404 H            1 TUD302   0.0000
    39 H5           2.3260    22.3569    34.7491 H            1 TUD302   0.0000
    40 H6           3.2531    22.5579    32.1926 H            1 TUD302   0.0000
    41 H7           3.1692    19.9869    33.3281 H            1 TUD302   0.0000
    42 H8           1.6961    20.2072    33.9975 H            1 TUD302   0.0000
    43 H9           2.6551    20.3842    36.1179 H            1 TUD302   0.0000
    44 H10          2.0117    18.2911    35.1114 H            1 TUD302   0.0000
    45 H11          2.9303    18.1953    36.4581 H            1 TUD302   0.0000
    46 H12          3.8645    16.6735    35.1899 H            1 TUD302   0.0000
    47 H13          2.9066    16.6060    33.3492 H            1 TUD302   0.0000
    48 H14          5.7055    17.7890    35.7577 H            1 TUD302   0.0000
    49 H15          5.3162    19.8005    33.8213 H            1 TUD302   0.0000
    50 H16          7.4556    19.7836    35.7288 H            1 TUD302   0.0000
    51 H17          7.2270    20.8822    34.5424 H            1 TUD302   0.0000
    52 H18          8.9638    19.2841    34.0354 H            1 TUD302   0.0000
    53 H19          7.7845    19.3247    32.9066 H            1 TUD302   0.0000
    54 H20          6.0171    17.6057    32.9405 H            1 TUD302   0.0000
    55 H21          5.3693    15.4912    33.4231 H            1 TUD302   0.0000
    56 H22          6.0957    15.5091    34.8855 H            1 TUD302   0.0000
    57 H23          7.2791    14.9023    32.4185 H            1 TUD302   0.0000
    58 H24          7.9370    14.7045    33.8999 H            1 TUD302   0.0000
    59 H25          8.1007    16.9265    32.1640 H            1 TUD302   0.0000
    60 H26          8.0425    16.2974    35.6408 H            1 TUD302   0.0000
    61 H27          9.1648    17.4818    35.5745 H            1 TUD302   0.0000
    62 H28          7.6620    17.8107    36.1223 H            1 TUD302   0.0000
    63 H29          4.9045    18.9900    37.3427 H            1 TUD302   0.0000
    64 H30          5.9493    20.2436    37.4009 H            1 TUD302   0.0000
    65 H31          4.3765    20.4735    37.7751 H            1 TUD302   0.0000
    66 H32         10.0338    15.8984    33.9402 H            1 TUD302   0.0000
    67 H33         11.6102    17.3401    32.8995 H            1 TUD302   0.0000
    68 H34         10.3947    18.0408    32.0637 H            1 TUD302   0.0000
    69 H35         10.4517    18.1765    33.6901 H            1 TUD302   0.0000
    70 H36         10.0867    15.6627    31.0950 H            1 TUD302   0.0000
    71 H37          9.5656    14.4736    32.0856 H            1 TUD302   0.0000
    72 H38         11.6328    14.0567    32.8674 H            1 TUD302   0.0000
    73 H39         12.2029    15.5058    32.3756 H            1 TUD302   0.0000
    74 H40         13.8338    13.6274    31.9443 H            1 TUD302   0.0000
    75 H41         13.7208    12.3213    29.4975 H            1 TUD302   0.0000
    76 H42         15.0554    12.5870    30.4001 H            1 TUD302   0.0000
    77 H43         13.9783    14.8030    29.0473 H            1 TUD302   0.0000
    78 H44         14.7084    13.6780    28.1157 H            1 TUD302   0.0000
@<TRIPOS>BOND
     1    1    2       1
     2    1   12       1
     3    2    3       1
     4    3    4       1
     5    3    5       1
     6    5    6       1
     7    6    7       1
     8    6   12       1
     9    7    8       1
    10    8    9       1
    11    8   10       1
    12   10   11       1
    13   10   16       1
    14   11   12       1
    15   11   13       1
    16   12   21       1
    17   13   14       1
    18   14   15       1
    19   15   16       1
    20   15   19       1
    21   15   20       1
    22   16   17       1
    23   17   18       1
    24   18   19       1
    25   19   22       1
    26   22   23       1
    27   22   24       1
    28   24   25       1
    29   25   27       1
    30   26   27       2
    31   27   28      am
    32   28   29       1
    33   29   30       1
    34   30   31       1
    35   31   32      ar
    36   31   33      ar
    37   31   34      ar
    38    1   35       1
    39    1   36       1
    40    2   37       1
    41    2   38       1
    42    3   39       1
    43    4   40       1
    44    5   41       1
    45    5   42       1
    46    6   43       1
    47    7   44       1
    48    7   45       1
    49    8   46       1
    50    9   47       1
    51   10   48       1
    52   11   49       1
    53   13   50       1
    54   13   51       1
    55   14   52       1
    56   14   53       1
    57   16   54       1
    58   17   55       1
    59   17   56       1
    60   18   57       1
    61   18   58       1
    62   19   59       1
    63   20   60       1
    64   20   61       1
    65   20   62       1
    66   21   63       1
    67   21   64       1
    68   21   65       1
    69   22   66       1
    70   23   67       1
    71   23   68       1
    72   23   69       1
    73   24   70       1
    74   24   71       1
    75   25   72       1
    76   25   73       1
    77   28   74       1
    78   29   75       1
    79   29   76       1
    80   30   77       1
    81   30   78       1
@<TRIPOS>SUBSTRUCTURE
     1 TUD302      1 GROUP             4 D     TUD     0 **** TUD D 302
