@<TRIPOS>MOLECULE
4mo5_ACP_1_ligand
   42    44     1     0     0
SMALL
NO_CHARGES


@<TRIPOS>ATOM
     1 PB          -3.1390   -41.9190    26.8770 P.3          1 ACP402   0.0000
     2 O1B         -3.7830   -42.5140    25.6380 O.co2        1 ACP402   0.0000
     3 O2B         -2.4270   -40.5590    26.6110 O.co2        1 ACP402  -1.0000
     4 C3B         -1.9740   -43.0160    27.7220 C.3          1 ACP402   0.0000
     5 PA          -4.4620   -40.4510    28.9950 P.3          1 ACP402   0.0000
     6 O1A         -4.7750   -39.0690    28.5550 O.co2        1 ACP402   0.0000
     7 O2A         -3.1330   -40.4360    29.7470 O.co2        1 ACP402  -1.0000
     8 O3A         -4.3110   -41.5600    27.8920 O.3          1 ACP402   0.0000
     9 O5'         -5.6410   -40.9960    29.9470 O.3          1 ACP402   0.0000
    10 C5'         -5.7320   -42.3610    30.3950 C.3          1 ACP402   0.0000
    11 C4'         -6.0690   -42.2520    31.8570 C.3          1 ACP402   0.0000
    12 O4'         -7.2250   -41.4040    32.0040 O.3          1 ACP402   0.0000
    13 C3'         -6.4650   -43.5280    32.5790 C.3          1 ACP402   0.0000
    14 O3'         -5.3100   -44.2740    32.9510 O.3          1 ACP402   0.0000
    15 C2'         -7.1890   -42.9630    33.7990 C.3          1 ACP402   0.0000
    16 O2'         -6.2590   -42.5310    34.7850 O.3          1 ACP402   0.0000
    17 C1'         -7.9080   -41.7510    33.1940 C.3          1 ACP402   0.0000
    18 N9          -9.3070   -42.0050    32.8820 N.pl3        1 ACP402   0.0000
    19 C8          -9.8760   -42.2780    31.6690 C.2          1 ACP402   0.0000
    20 N7         -11.1640   -42.5390    31.7260 N.2          1 ACP402   0.0000
    21 C5         -11.4530   -42.4180    33.0760 C.ar         1 ACP402   0.0000
    22 C6         -12.6560   -42.5660    33.8060 C.ar         1 ACP402   0.0000
    23 N6         -13.8300   -42.8760    33.2480 N.pl3        1 ACP402   0.0000
    24 N1         -12.6050   -42.3660    35.1420 N.ar         1 ACP402   0.0000
    25 C2         -11.4360   -42.0410    35.7020 C.ar         1 ACP402   0.0000
    26 N3         -10.2460   -41.8800    35.1210 N.ar         1 ACP402   0.0000
    27 C4         -10.3260   -42.0840    33.8030 C.ar         1 ACP402   0.0000
    28 H3B1        -1.5976   -42.5495    28.5225 H            1 ACP402   0.0000
    29 H3B2        -2.4492   -43.8464    28.0129 H            1 ACP402   0.0000
    30 H3B3        -1.2314   -43.2583    27.0976 H            1 ACP402   0.0000
    31 H5'1        -4.8606   -42.8345    30.2669 H            1 ACP402   0.0000
    32 H5'2        -6.4520   -42.8485    29.9011 H            1 ACP402   0.0000
    33 H4'         -5.2976   -41.8342    32.3370 H            1 ACP402   0.0000
    34 H3'         -7.0831   -44.0797    32.0190 H            1 ACP402   0.0000
    35 H8          -5.0099   -43.9915    33.8621 H            1 ACP402   0.0000
    36 H2'         -7.8395   -43.6228    34.1752 H            1 ACP402   0.0000
    37 H10         -6.0550   -43.2883    35.4054 H            1 ACP402   0.0000
    38 H1'         -7.8518   -40.9861    33.8357 H            1 ACP402   0.0000
    39 H12         -9.3583   -42.2791    30.8134 H            1 ACP402   0.0000
    40 H13        -14.6463   -42.9666    33.8184 H            1 ACP402   0.0000
    41 H14        -13.8922   -43.0173    32.2600 H            1 ACP402   0.0000
    42 H15        -11.4560   -41.8991    36.6917 H            1 ACP402   0.0000
@<TRIPOS>BOND
     1    1    2      ar
     2    1    3      ar
     3    1    4       1
     4    1    8       1
     5    5    6      ar
     6    5    7      ar
     7    5    8       1
     8    5    9       1
     9    9   10       1
    10   10   11       1
    11   11   12       1
    12   11   13       1
    13   12   17       1
    14   13   14       1
    15   13   15       1
    16   15   16       1
    17   15   17       1
    18   17   18       1
    19   18   19       1
    20   18   27       1
    21   19   20       2
    22   20   21       1
    23   21   22      ar
    24   21   27      ar
    25   22   23       1
    26   22   24      ar
    27   24   25      ar
    28   25   26      ar
    29   26   27      ar
    30   25   42       1
    31    4   28       1
    32    4   29       1
    33    4   30       1
    34   23   41       1
    35   10   31       1
    36   10   32       1
    37   11   33       1
    38   13   34       1
    39   14   35       1
    40   15   36       1
    41   16   37       1
    42   17   38       1
    43   19   39       1
    44   23   40       1
@<TRIPOS>SUBSTRUCTURE
     1 ACP402      1 GROUP             4 A     ACP     0 **** ACP A 402
