@<TRIPOS>MOLECULE
3g5k_BB2_2_ligand
   61    61     1     0     0
SMALL
NO_CHARGES


@<TRIPOS>ATOM
     1 C5          21.7000   -10.5420    27.5200 C.3          1 BB21002   0.0000
     2 C3          22.5250   -11.1360    26.3930 C.2          1 BB21002   0.0000
     3 O4          23.1080   -10.4960    25.4720 O.2          1 BB21002   0.0000
     4 N1          22.3780   -12.3140    26.0100 N.am         1 BB21002   0.0000
     5 O2          23.2480   -12.7530    24.9220 O.3          1 BB21002  -1.0000
     6 C6          20.2250   -10.2290    27.0150 C.3          1 BB21002   0.0000
     7 C12         19.5480    -9.4430    27.9920 C.2          1 BB21002   0.0000
     8 O13         19.1880    -9.8100    29.0870 O.2          1 BB21002   0.0000
     9 C7          19.3320   -11.4800    26.8280 C.3          1 BB21002   0.0000
    10 C8          17.9130   -10.9960    26.2620 C.3          1 BB21002   0.0000
    11 C9          17.8480   -10.2260    24.9340 C.3          1 BB21002   0.0000
    12 C10         16.3640   -10.3200    24.4010 C.3          1 BB21002   0.0000
    13 C11         15.3840    -9.4360    25.2550 C.3          1 BB21002   0.0000
    14 N14         19.2430    -8.1570    27.6330 N.am         1 BB21002   0.0000
    15 C15         18.4250    -7.2640    28.5190 C.3          1 BB21002   0.0000
    16 C16         19.3380    -6.1220    29.0710 C.3          1 BB21002   0.0000
    17 C18         20.5670    -6.7290    29.8310 C.3          1 BB21002   0.0000
    18 C17         19.8810    -5.2960    27.8990 C.3          1 BB21002   0.0000
    19 C19         17.2990    -6.6490    27.6600 C.2          1 BB21002   0.0000
    20 O20         17.3220    -6.5600    26.3820 O.2          1 BB21002   0.0000
    21 N21         16.2380    -6.1710    28.3720 N.am         1 BB21002   0.0000
    22 C22         15.1650    -5.5050    27.6570 C.3          1 BB21002   0.0000
    23 C23         15.9480    -6.2880    29.8600 C.3          1 BB21002   0.0000
    24 C24         14.3830    -6.6300    29.7130 C.3          1 BB21002   0.0000
    25 C25         13.9580    -5.5760    28.7090 C.3          1 BB21002   0.0000
    26 C26         15.6220    -4.0550    27.6180 C.3          1 BB21002   0.0000
    27 O27         14.5310    -3.5850    26.7220 O.3          1 BB21002   0.0000
    28 H1          22.1291    -9.6944    27.8322 H            1 BB21002   0.0000
    29 H2          21.6585   -11.1933    28.2777 H            1 BB21002   0.0000
    30 H3          21.7024   -12.9236    26.4246 H            1 BB21002   0.0000
    31 H4          20.2698    -9.7218    26.1543 H            1 BB21002   0.0000
    32 H5          19.2073   -11.9422    27.7060 H            1 BB21002   0.0000
    33 H6          19.7600   -12.1083    26.1784 H            1 BB21002   0.0000
    34 H7          17.5080   -10.4056    26.9601 H            1 BB21002   0.0000
    35 H8          17.3501   -11.8150    26.1506 H            1 BB21002   0.0000
    36 H9          18.4751   -10.6353    24.2713 H            1 BB21002   0.0000
    37 H10         18.0974    -9.2690    25.0820 H            1 BB21002   0.0000
    38 H11         16.0633   -11.2727    24.4451 H            1 BB21002   0.0000
    39 H12         16.3399   -10.0064    23.4517 H            1 BB21002   0.0000
    40 H13         14.4565    -9.5193    24.8905 H            1 BB21002   0.0000
    41 H14         15.3977    -9.7463    26.2055 H            1 BB21002   0.0000
    42 H15         15.6743    -8.4800    25.2122 H            1 BB21002   0.0000
    43 H16         19.5740    -7.8040    26.7579 H            1 BB21002   0.0000
    44 H17         18.0350    -7.7903    29.2746 H            1 BB21002   0.0000
    45 H18         18.8132    -5.5345    29.6870 H            1 BB21002   0.0000
    46 H19         21.1425    -5.9889    30.1788 H            1 BB21002   0.0000
    47 H20         20.2438    -7.2872    30.5952 H            1 BB21002   0.0000
    48 H21         21.0988    -7.2982    29.2039 H            1 BB21002   0.0000
    49 H22         20.4657    -4.5644    28.2495 H            1 BB21002   0.0000
    50 H23         20.4136    -5.8870    27.2932 H            1 BB21002   0.0000
    51 H24         19.1179    -4.8979    27.3899 H            1 BB21002   0.0000
    52 H25         14.9575    -5.8982    26.7613 H            1 BB21002   0.0000
    53 H26         16.1102    -5.4326    30.3519 H            1 BB21002   0.0000
    54 H27         16.4637    -7.0259    30.2955 H            1 BB21002   0.0000
    55 H28         13.9000    -6.5266    30.5825 H            1 BB21002   0.0000
    56 H29         14.2395    -7.5545    29.3598 H            1 BB21002   0.0000
    57 H30         13.1090    -5.8446    28.2539 H            1 BB21002   0.0000
    58 H31         13.8299    -4.6921    29.1587 H            1 BB21002   0.0000
    59 H32         16.5302    -3.9451    27.2143 H            1 BB21002   0.0000
    60 H33         15.6016    -3.6173    28.5169 H            1 BB21002   0.0000
    61 H34         14.3229    -2.6279    26.9238 H            1 BB21002   0.0000
@<TRIPOS>BOND
     1    1    2       1
     2    1    6       1
     3    2    3       2
     4    2    4      am
     5    4    5       1
     6    6    7       1
     7    6    9       1
     8    7    8       2
     9    7   14      am
    10    9   10       1
    11   10   11       1
    12   11   12       1
    13   12   13       1
    14   14   15       1
    15   15   16       1
    16   15   19       1
    17   16   17       1
    18   16   18       1
    19   19   20       2
    20   19   21      am
    21   21   22       1
    22   21   23       1
    23   22   25       1
    24   22   26       1
    25   23   24       1
    26   24   25       1
    27   26   27       1
    28    1   28       1
    29    1   29       1
    30    4   30       1
    31   27   61       1
    32    6   31       1
    33    9   32       1
    34    9   33       1
    35   10   34       1
    36   10   35       1
    37   11   36       1
    38   11   37       1
    39   12   38       1
    40   12   39       1
    41   13   40       1
    42   13   41       1
    43   13   42       1
    44   14   43       1
    45   15   44       1
    46   16   45       1
    47   17   46       1
    48   17   47       1
    49   17   48       1
    50   18   49       1
    51   18   50       1
    52   18   51       1
    53   22   52       1
    54   23   53       1
    55   23   54       1
    56   24   55       1
    57   24   56       1
    58   25   57       1
    59   25   58       1
    60   26   59       1
    61   26   60       1
@<TRIPOS>SUBSTRUCTURE
     1 BB21002     1 GROUP             4 B     BB2     0 **** BB2 B1002
