@<TRIPOS>MOLECULE
./coach420/1fkg/ligand.pdb
 33 35 0 0 0
SMALL
GASTEIGER

@<TRIPOS>ATOM
      1  C1       -24.9690   27.3480    4.2710 C.2   108  SB3108      0.3354
      2  C2       -25.7480   26.0540    3.9610 C.3   108  SB3108      0.1749
      3  C3       -25.3870   25.4230    2.6200 C.3   108  SB3108      0.0314
      4  C4       -25.7890   26.2160    1.3830 C.3   108  SB3108      0.0040
      5  C5       -27.2970   26.3700    1.3880 C.3   108  SB3108      0.0216
      6  C6       -27.6570   26.9830    2.7430 C.3   108  SB3108      0.0943
      7  N7       -27.2020   26.1280    3.8840 N.am  108  SB3108     -0.2656
      8  O1       -23.8060   27.4770    3.9930 O.2   108  SB3108     -0.2483
      9  O2       -25.6770   28.3360    4.7790 O.3   108  SB3108     -0.4466
     10  C8       -27.9480   25.8960    4.9870 C.2   108  SB3108      0.2842
     11  O3       -27.3890   25.4260    5.9800 O.2   108  SB3108     -0.2668
     12  C9       -29.4780   26.0970    5.0560 C.2   108  SB3108      0.2252
     13  O4       -30.2030   25.2860    4.4680 O.2   108  SB3108     -0.2865
     14  C10      -30.1130   27.1930    5.9250 C.3   108  SB3108      0.0601
     15  C11      -29.6180   28.5640    5.5010 C.3   108  SB3108      0.0074
     16  C12      -30.1120   29.0070    4.1070 C.3   108  SB3108      0.0004
     17  C13      -29.7510   27.0540    7.4480 C.3   108  SB3108      0.0079
     18  C14      -31.6540   27.2080    5.8160 C.3   108  SB3108      0.0079
     19  C15      -25.1340   29.6560    4.9600 C.3   108  SB3108      0.1915
     20  C16      -24.5940   29.7240    6.3920 C.3   108  SB3108      0.0530
     21  C17      -23.7130   30.9140    6.7670 C.3   108  SB3108      0.0304
     22  C18      -22.5240   30.5570    7.6390 C.ar  108  SB3108     -0.0221
     23  C19      -22.6260   30.6130    8.9560 C.ar  108  SB3108     -0.0043
     24  C20      -21.7020   30.0690    9.7210 C.ar  108  SB3108     -0.0003
     25  C21      -20.6520   29.4650    9.1790 C.ar  108  SB3108     -0.0000
     26  C22      -20.5310   29.4190    7.8660 C.ar  108  SB3108     -0.0003
     27  C23      -21.4660   29.9720    7.1020 C.ar  108  SB3108     -0.0043
     28  C24      -26.2810   30.6540    4.6780 C.ar  108  SB3108      0.0173
     29  C25      -26.4530   31.0880    3.4270 C.ar  108  SB3108     -0.0008
     30  C26      -27.3790   31.9840    3.1360 C.ar  108  SB3108     -0.0002
     31  C27      -28.1560   32.4590    4.0980 C.ar  108  SB3108     -0.0000
     32  C28      -28.0050   32.0380    5.3480 C.ar  108  SB3108     -0.0002
     33  C29      -27.0750   31.1380    5.6430 C.ar  108  SB3108     -0.0008
@<TRIPOS>BOND
     1     1     2    1
     2     1     8    2
     3     1     9    1
     4     2     3    1
     5     2     7    1
     6     3     4    1
     7     4     5    1
     8     5     6    1
     9     6     7    1
    10     7    10   am
    11     9    19    1
    12    10    12    1
    13    10    11    2
    14    12    13    2
    15    12    14    1
    16    14    15    1
    17    14    18    1
    18    14    17    1
    19    15    16    1
    20    19    28    1
    21    19    20    1
    22    20    21    1
    23    21    22    1
    24    22    27   ar
    25    22    23   ar
    26    23    24   ar
    27    24    25   ar
    28    25    26   ar
    29    26    27   ar
    30    28    29   ar
    31    28    33   ar
    32    29    30   ar
    33    30    31   ar
    34    31    32   ar
    35    32    33   ar
