@<TRIPOS>MOLECULE
2e9z_UTP_1_ligand
   40    41     1     0     0
SMALL
NO_CHARGES


@<TRIPOS>ATOM
     1 PA          19.6450    26.1560    16.0940 P.3          1 UTP993   0.0000
     2 O1A         18.1090    25.8650    15.8460 O.co2        1 UTP993   0.0000
     3 O2A         20.3500    27.4960    16.4070 O.co2        1 UTP993  -1.0000
     4 O3A         20.3860    25.5470    14.7290 O.3          1 UTP993   0.0000
     5 O5'         19.6800    26.1310    17.6180 O.3          1 UTP993   0.0000
     6 PB          19.5810    25.4310    13.2750 P.3          1 UTP993   0.0000
     7 O1B         19.1350    26.8630    12.8550 O.co2        1 UTP993   0.0000
     8 O2B         18.3670    24.4670    13.3910 O.co2        1 UTP993  -1.0000
     9 O3B         20.6710    24.6020    12.3320 O.3          1 UTP993   0.0000
    10 PG          21.0650    24.6490    10.6960 P.3          1 UTP993   0.0000
    11 O1G         22.1210    25.7210    10.4230 O.co2        1 UTP993   0.0000
    12 O2G         21.6200    23.2180    10.4870 O.co2        1 UTP993  -1.0000
    13 O3G         19.7260    24.9840    10.0280 O.co2        1 UTP993  -1.0000
    14 C5'         19.1080    26.5950    18.8910 C.3          1 UTP993   0.0000
    15 C4'         18.6160    25.3600    19.7170 C.3          1 UTP993   0.0000
    16 O4'         17.4200    25.6070    20.5120 O.3          1 UTP993   0.0000
    17 C1'         16.3850    24.6750    20.1350 C.3          1 UTP993   0.0000
    18 C2'         16.9510    23.8000    19.0110 C.3          1 UTP993   0.0000
    19 O2'         16.9010    22.4230    19.4800 O.3          1 UTP993   0.0000
    20 C3'         18.4060    24.1820    18.7580 C.3          1 UTP993   0.0000
    21 O3'         19.5270    23.2410    18.8010 O.3          1 UTP993   0.0000
    22 N1          15.0940    25.3800    19.9300 N.pl3        1 UTP993   0.0000
    23 C6          14.9330    26.7950    20.0870 C.2          1 UTP993   0.0000
    24 C2          13.9750    24.5550    19.5600 C.2          1 UTP993   0.0000
    25 O2          14.0040    23.3360    19.4020 O.3          1 UTP993   0.0000
    26 N3          12.7700    25.2440    19.3730 N.2          1 UTP993   0.0000
    27 C4          12.5490    26.6380    19.5120 C.2          1 UTP993   0.0000
    28 O4          11.4330    27.0970    19.3150 O.2          1 UTP993   0.0000
    29 C5          13.7320    27.4200    19.8930 C.2          1 UTP993   0.0000
    30 H5'1        18.3360    27.2038    18.7082 H            1 UTP993   0.0000
    31 H5'2        19.8056    27.0881    19.4107 H            1 UTP993   0.0000
    32 H4'         19.3500    25.1078    20.3476 H            1 UTP993   0.0000
    33 H1'         16.2525    24.0707    20.9207 H            1 UTP993   0.0000
    34 H2'         16.4099    23.9066    18.1768 H            1 UTP993   0.0000
    35 H6          17.4517    22.3333    20.3098 H            1 UTP993   0.0000
    36 H3'         18.4234    24.5776    17.8398 H            1 UTP993   0.0000
    37 H8          19.3553    22.4887    18.1650 H            1 UTP993   0.0000
    38 H9          15.7265    27.3449    20.3476 H            1 UTP993   0.0000
    39 H10         13.6595    28.4104    20.0107 H            1 UTP993   0.0000
    40 H11         14.8597    22.8352    19.5320 H            1 UTP993   0.0000
@<TRIPOS>BOND
     1    1    2      ar
     2    1    3      ar
     3    1    4       1
     4    1    5       1
     5    4    6       1
     6    5   14       1
     7    6    7      ar
     8    6    8      ar
     9    6    9       1
    10    9   10       1
    11   10   11      ar
    12   10   12      ar
    13   10   13      ar
    14   14   15       1
    15   15   16       1
    16   15   20       1
    17   16   17       1
    18   17   18       1
    19   17   22       1
    20   18   19       1
    21   18   20       1
    22   20   21       1
    23   22   23       1
    24   22   24       1
    25   23   29       2
    26   24   25       1
    27   24   26       2
    28   26   27       1
    29   27   28       2
    30   27   29       1
    31   29   39       1
    32   20   36       1
    33   23   38       1
    34   21   37       1
    35   14   30       1
    36   14   31       1
    37   15   32       1
    38   17   33       1
    39   18   34       1
    40   19   35       1
    41   25   40       1
@<TRIPOS>SUBSTRUCTURE
     1 UTP993      1 GROUP             4 A     UTP     0 **** UTP A 993
