@<TRIPOS>MOLECULE
4bfr_J82_1_ligand
   48    51     1     0     0
SMALL
NO_CHARGES


@<TRIPOS>ATOM
     1 C1           0.3770    73.5740    79.9420 C.2          1 J822000   0.0000
     2 N2           0.9240    72.6840    80.8520 N.pl3        1 J822000   0.0000
     3 C3           2.0940    73.0470    81.6670 C.3          1 J822000   0.0000
     4 C4           2.8780    71.8060    82.0250 C.3          1 J822000   0.0000
     5 O5           2.0570    70.8320    82.6690 O.3          1 J822000   0.0000
     6 C6           0.9850    70.4420    81.8110 C.3          1 J822000   0.0000
     7 C7           0.1090    71.6180    81.4520 C.3          1 J822000   0.0000
     8 N8           1.1180    74.6600    79.5830 N.2          1 J822000   0.0000
     9 C9           0.6170    75.5380    78.7130 C.2          1 J822000   0.0000
    10 N10         -0.6500    75.3860    78.1250 N.pl3        1 J822000   0.0000
    11 C11         -1.4640    74.3090    78.4360 C.2          1 J822000   0.0000
    12 C12         -0.9130    73.3890    79.3790 C.2          1 J822000   0.0000
    13 O13         -2.5780    74.2180    77.9030 O.2          1 J822000   0.0000
    14 C14          1.3580    76.8000    78.3370 C.3          1 J822000   0.0000
    15 C15          1.1470    77.9730    79.2730 C.2          1 J822000   0.0000
    16 O16          0.0110    78.2210    79.6460 O.2          1 J822000   0.0000
    17 N17          2.2110    78.7440    79.6640 N.am         1 J822000   0.0000
    18 C18          4.5190    79.1690    80.1340 C.3          1 J822000   0.0000
    19 C19          3.6140    78.5380    79.0850 C.3          1 J822000   0.0000
    20 C20          3.6050    80.0780    80.9110 C.ar         1 J822000   0.0000
    21 C21          2.2760    79.7120    80.7030 C.ar         1 J822000   0.0000
    22 C22          1.2470    80.3190    81.4220 C.ar         1 J822000   0.0000
    23 C23          1.5680    81.3150    82.3400 C.ar         1 J822000   0.0000
    24 C24          2.8870    81.7000    82.5320 C.ar         1 J822000   0.0000
    25 C25          3.9060    81.0870    81.8190 C.ar         1 J822000   0.0000
    26 C26          3.7910    79.2630    77.7570 C.3          1 J822000   0.0000
    27 H1           1.7870    73.4982    82.5049 H            1 J822000   0.0000
    28 H2           2.6789    73.6702    81.1479 H            1 J822000   0.0000
    29 H3           3.6237    72.0599    82.6409 H            1 J822000   0.0000
    30 H4           3.2567    71.4092    81.1889 H            1 J822000   0.0000
    31 H5           0.4297    69.7533    82.2771 H            1 J822000   0.0000
    32 H6           1.3652    70.0519    80.9724 H            1 J822000   0.0000
    33 H7          -0.5877    71.3249    80.7972 H            1 J822000   0.0000
    34 H8          -0.3350    71.9652    82.2781 H            1 J822000   0.0000
    35 H9          -1.4515    72.5913    79.6506 H            1 J822000   0.0000
    36 H10          1.0579    77.0748    77.4235 H            1 J822000   0.0000
    37 H11          2.3357    76.5910    78.3179 H            1 J822000   0.0000
    38 H12          5.2539    79.6908    79.7009 H            1 J822000   0.0000
    39 H13          4.9134    78.4691    80.7295 H            1 J822000   0.0000
    40 H14          3.8152    77.5636    78.9850 H            1 J822000   0.0000
    41 H15          0.2960    80.0439    81.2808 H            1 J822000   0.0000
    42 H16          0.8413    81.7570    82.8658 H            1 J822000   0.0000
    43 H17          3.1038    82.4231    83.1878 H            1 J822000   0.0000
    44 H18          4.8551    81.3699    81.9575 H            1 J822000   0.0000
    45 H19          4.7162    79.1052    77.4118 H            1 J822000   0.0000
    46 H20          3.1251    78.9161    77.0965 H            1 J822000   0.0000
    47 H21          3.6479    80.2436    77.8909 H            1 J822000   0.0000
    48 H22         -0.9707    76.0690    77.4688 H            1 J822000   0.0000
@<TRIPOS>BOND
     1    1    2       1
     2    1    8       1
     3    1   12       2
     4    2    3       1
     5    2    7       1
     6    3    4       1
     7    4    5       1
     8    5    6       1
     9    6    7       1
    10    8    9       2
    11    9   10       1
    12    9   14       1
    13   10   11       1
    14   11   12       1
    15   11   13       2
    16   14   15       1
    17   15   16       2
    18   15   17      am
    19   17   19       1
    20   17   21       1
    21   18   19       1
    22   18   20       1
    23   19   26       1
    24   20   21      ar
    25   20   25      ar
    26   21   22      ar
    27   22   23      ar
    28   23   24      ar
    29   24   25      ar
    30    3   27       1
    31    3   28       1
    32    4   29       1
    33    4   30       1
    34    6   31       1
    35    6   32       1
    36    7   33       1
    37    7   34       1
    38   26   47       1
    39   12   35       1
    40   14   36       1
    41   14   37       1
    42   18   38       1
    43   18   39       1
    44   19   40       1
    45   22   41       1
    46   23   42       1
    47   24   43       1
    48   25   44       1
    49   26   45       1
    50   26   46       1
    51   10   48       1
@<TRIPOS>SUBSTRUCTURE
     1 J822000     1 GROUP             4 A     J82     0 **** J82 A2000
