@<TRIPOS>MOLECULE
4l1f_COS_2_ligand
   81    83     1     0     0
SMALL
NO_CHARGES


@<TRIPOS>ATOM
     1 N1A        131.7210    -1.0370   -24.0150 N.ar         1 COS402   0.0000
     2 C2A        132.0530    -1.0290   -25.3480 C.ar         1 COS402   0.0000
     3 N3A        131.1700    -0.7150   -26.3240 N.ar         1 COS402   0.0000
     4 C4A        129.8660    -0.4230   -25.9790 C.ar         1 COS402   0.0000
     5 C5A        129.4350    -0.4070   -24.5630 C.ar         1 COS402   0.0000
     6 C6A        130.4590    -0.7570   -23.5620 C.ar         1 COS402   0.0000
     7 N6A        130.1020    -0.7760   -22.2500 N.pl3        1 COS402   0.0000
     8 N7A        128.1210    -0.0410   -24.5100 N.2          1 COS402   0.0000
     9 C8A        127.7290     0.1200   -25.8330 C.2          1 COS402   0.0000
    10 N9A        128.7940    -0.0890   -26.6880 N.pl3        1 COS402   0.0000
    11 C1B        128.8570    -0.0090   -28.1940 C.3          1 COS402   0.0000
    12 C2B        128.0180    -1.1440   -28.7750 C.3          1 COS402   0.0000
    13 O2B        128.6670    -2.4040   -28.7490 O.3          1 COS402   0.0000
    14 C3B        127.7360    -0.6610   -30.1980 C.3          1 COS402   0.0000
    15 O3B        128.8850    -0.9480   -31.0170 O.3          1 COS402   0.0000
    16 P3B        128.9180    -1.8360   -32.3880 P.3          1 COS402   0.0000
    17 O7A        130.3030    -1.4710   -32.9080 O.co2        1 COS402   0.0000
    18 O8A        128.7370    -3.2740   -31.9250 O.co2        1 COS402  -1.0000
    19 O9A        127.7550    -1.2330   -33.1540 O.co2        1 COS402  -1.0000
    20 C4B        127.6010     0.8400   -30.0040 C.3          1 COS402   0.0000
    21 O4B        128.2760     1.1930   -28.7700 O.3          1 COS402   0.0000
    22 C5B        126.1530     1.2640   -29.8610 C.3          1 COS402   0.0000
    23 O5B        125.7150     0.5690   -28.6890 O.3          1 COS402   0.0000
    24 P1A        124.1790     0.5480   -28.3140 P.3          1 COS402   0.0000
    25 O1A        124.0000    -0.2950   -27.0460 O.co2        1 COS402   0.0000
    26 O2A        123.3910     0.1810   -29.5140 O.co2        1 COS402  -1.0000
    27 O3A        123.8950     2.1510   -27.9720 O.3          1 COS402   0.0000
    28 P2A        122.3980     2.7690   -27.6390 P.3          1 COS402   0.0000
    29 O4A        122.0980     3.9620   -28.5500 O.co2        1 COS402   0.0000
    30 O5A        121.3890     1.6470   -27.4820 O.co2        1 COS402  -1.0000
    31 O6A        122.7060     3.4290   -26.1580 O.3          1 COS402   0.0000
    32 CBP        123.1310     3.3030   -23.7370 C.3          1 COS402   0.0000
    33 CCP        123.0320     2.5730   -25.0620 C.3          1 COS402   0.0000
    34 CDP        121.7620     3.8890   -23.4780 C.3          1 COS402   0.0000
    35 CEP        123.4190     2.1320   -22.7820 C.3          1 COS402   0.0000
    36 CAP        124.2690     4.3990   -23.8470 C.3          1 COS402   0.0000
    37 OAP        124.0100     5.4350   -24.8200 O.3          1 COS402   0.0000
    38 C9P        124.4940     5.0700   -22.4780 C.2          1 COS402   0.0000
    39 O9P        125.1570     4.5050   -21.6230 O.2          1 COS402   0.0000
    40 N8P        123.9140     6.2650   -22.2670 N.am         1 COS402   0.0000
    41 C7P        124.0640     7.0190   -20.9930 C.3          1 COS402   0.0000
    42 C6P        125.2030     7.9990   -21.2050 C.3          1 COS402   0.0000
    43 C5P        125.8550     8.3520   -19.9260 C.2          1 COS402   0.0000
    44 O5P        126.0880     7.4440   -19.0830 O.2          1 COS402   0.0000
    45 N4P        126.2140     9.6630   -19.8020 N.am         1 COS402   0.0000
    46 C3P        127.0360    10.0420   -18.6360 C.3          1 COS402   0.0000
    47 C2P        128.0420    11.1680   -18.9500 C.3          1 COS402   0.0000
    48 S1P        129.2460    11.5120   -17.6460 S.3          1 COS402   0.0000
    49 S'P        128.0630    12.0610   -16.0880 S.3          1 COS402   0.0000
    50 H2A        132.9889    -1.2658   -25.6086 H            1 COS402   0.0000
    51 H6A1       129.1621    -0.5615   -21.9844 H            1 COS402   0.0000
    52 H6A2       130.7794    -1.0045   -21.5508 H            1 COS402   0.0000
    53 H8A        126.8024     0.3551   -26.1265 H            1 COS402   0.0000
    54 H1B        129.8055    -0.1026   -28.4966 H            1 COS402   0.0000
    55 H2B        127.1561    -1.2072   -28.2719 H            1 COS402   0.0000
    56 H7         128.7556    -2.7526   -29.6821 H            1 COS402   0.0000
    57 H3B        126.9011    -1.0658   -30.5711 H            1 COS402   0.0000
    58 H4B        128.0224     1.3218   -30.7723 H            1 COS402   0.0000
    59 H5B1       125.6193     0.9882   -30.6604 H            1 COS402   0.0000
    60 H5B2       126.0810     2.2537   -29.7374 H            1 COS402   0.0000
    61 HCP1       123.9123     2.1377   -25.2507 H            1 COS402   0.0000
    62 HCP2       122.3230     1.8719   -24.9855 H            1 COS402   0.0000
    63 HDP1       121.7706     4.3852   -22.6099 H            1 COS402   0.0000
    64 HDP2       121.5227     4.5170   -24.2185 H            1 COS402   0.0000
    65 HDP3       121.0870     3.1525   -23.4342 H            1 COS402   0.0000
    66 HEP1       123.5103     2.4781   -21.8482 H            1 COS402   0.0000
    67 HEP2       122.6653     1.4760   -22.8222 H            1 COS402   0.0000
    68 HEP3       124.2687     1.6807   -23.0547 H            1 COS402   0.0000
    69 HAP        125.1172     3.9374   -24.1069 H            1 COS402   0.0000
    70 H21        123.4546     5.0626   -25.5636 H            1 COS402   0.0000
    71 H8P        123.3587     6.6635   -22.9969 H            1 COS402   0.0000
    72 H7P1       124.2817     6.3928   -20.2444 H            1 COS402   0.0000
    73 H7P2       123.2196     7.5111   -20.7811 H            1 COS402   0.0000
    74 H6P1       124.8424     8.8308   -21.6270 H            1 COS402   0.0000
    75 H6P2       125.8806     7.5841   -21.8121 H            1 COS402   0.0000
    76 H4P        125.9300    10.3432   -20.4777 H            1 COS402   0.0000
    77 H3P1       127.5438     9.2372   -18.3287 H            1 COS402   0.0000
    78 H3P2       126.4284    10.3520   -17.9047 H            1 COS402   0.0000
    79 H2P1       127.5243    12.0061   -19.1217 H            1 COS402   0.0000
    80 H2P2       128.5450    10.9119   -19.7755 H            1 COS402   0.0000
    81 H'P        128.6340    12.2783   -15.2963 H            1 COS402   0.0000
@<TRIPOS>BOND
     1    1    2      ar
     2    1    6      ar
     3    2    3      ar
     4    3    4      ar
     5    4    5      ar
     6    4   10       1
     7    5    6      ar
     8    5    8       1
     9    6    7       1
    10    8    9       2
    11    9   10       1
    12   10   11       1
    13   11   12       1
    14   11   21       1
    15   12   13       1
    16   12   14       1
    17   14   15       1
    18   14   20       1
    19   15   16       1
    20   16   17      ar
    21   16   18      ar
    22   16   19      ar
    23   20   21       1
    24   20   22       1
    25   22   23       1
    26   23   24       1
    27   24   25      ar
    28   24   26      ar
    29   24   27       1
    30   27   28       1
    31   28   29      ar
    32   28   30      ar
    33   28   31       1
    34   31   33       1
    35   32   33       1
    36   32   34       1
    37   32   35       1
    38   32   36       1
    39   36   37       1
    40   36   38       1
    41   38   39       2
    42   38   40      am
    43   40   41       1
    44   41   42       1
    45   42   43       1
    46   43   44       2
    47   43   45      am
    48   45   46       1
    49   46   47       1
    50   47   48       1
    51   48   49       1
    52    2   50       1
    53    7   51       1
    54    7   52       1
    55    9   53       1
    56   11   54       1
    57   12   55       1
    58   13   56       1
    59   14   57       1
    60   49   81       1
    61   47   80       1
    62   20   58       1
    63   22   59       1
    64   22   60       1
    65   47   79       1
    66   46   78       1
    67   33   61       1
    68   33   62       1
    69   34   63       1
    70   34   64       1
    71   34   65       1
    72   35   66       1
    73   35   67       1
    74   35   68       1
    75   36   69       1
    76   37   70       1
    77   40   71       1
    78   41   72       1
    79   41   73       1
    80   42   74       1
    81   42   75       1
    82   45   76       1
    83   46   77       1
@<TRIPOS>SUBSTRUCTURE
     1 COS402      1 GROUP             4 B     COS     0 **** COS B 402
