@<TRIPOS>MOLECULE
5bnw_12V_1_ligand
   64    66     1     0     0
SMALL
NO_CHARGES


@<TRIPOS>ATOM
     1 N1          21.9390     1.8890    20.9960 N.pl3        1 12V1101   0.0000
     2 C2          21.5060     0.6580    20.6440 C.2          1 12V1101   0.0000
     3 O2          20.4360     0.4740    20.0890 O.2          1 12V1101   0.0000
     4 N3          22.2290    -0.4560    20.9350 N.pl3        1 12V1101   0.0000
     5 C4          23.4340    -0.3530    21.5990 C.2          1 12V1101   0.0000
     6 O4          24.0380    -1.3970    21.8470 O.2          1 12V1101   0.0000
     7 C5          23.8970     0.9000    21.9540 C.2          1 12V1101   0.0000
     8 C6          23.1500     2.0270    21.6550 C.2          1 12V1101   0.0000
     9 PA          23.6000     8.3870    19.4780 P.3          1 12V1101   0.0000
    10 PB          23.3780    10.0970    21.8010 P.3          1 12V1101   0.0000
    11 C1'         22.1060    11.6230    20.0620 C.3          1 12V1101   0.0000
    12 O1'         22.1840    11.0770    21.4090 O.3          1 12V1101   0.0000
    13 O1A         23.3160     9.5920    18.7410 O.co2        1 12V1101   0.0000
    14 C1B         21.1100     3.0730    20.5990 C.3          1 12V1101   0.0000
    15 O1B         23.3110     9.8720    23.2530 O.co2        1 12V1101   0.0000
    16 C2'         22.3070    13.1420    20.0530 C.3          1 12V1101   0.0000
    17 N2'         23.6710    13.3590    20.5370 N.am         1 12V1101   0.0000
    18 O2'         19.6890     3.8990    22.3950 O.3          1 12V1101   0.0000
    19 O2A         25.0190     7.9470    19.5760 O.co2        1 12V1101  -1.0000
    20 C2B         20.8940     4.1570    21.5840 C.3          1 12V1101   0.0000
    21 O2B         24.5800    10.6440    21.1740 O.co2        1 12V1101  -1.0000
    22 C3'         21.2960    13.8540    20.9540 C.3          1 12V1101   0.0000
    23 O3'         21.7150    15.1780    21.2460 O.3          1 12V1101   0.0000
    24 O3A         23.0110     8.6850    21.0270 O.3          1 12V1101   0.0000
    25 C3B         20.7010     5.3150    20.6010 C.3          1 12V1101   0.0000
    26 O3B         19.3550     5.3110    20.0750 O.3          1 12V1101   0.0000
    27 C4'         19.9030    13.8550    20.3210 C.3          1 12V1101   0.0000
    28 O4'         19.0960    14.5280    21.2930 O.3          1 12V1101   0.0000
    29 C4B         21.6580     5.0340    19.4880 C.3          1 12V1101   0.0000
    30 O4B         22.0390     3.6490    19.6810 O.3          1 12V1101   0.0000
    31 C5'         19.3860    12.3830    20.1900 C.3          1 12V1101   0.0000
    32 S5'         20.5220    11.2770    19.3670 S.3          1 12V1101   0.0000
    33 C5B         22.9350     5.8620    19.5730 C.3          1 12V1101   0.0000
    34 O5B         22.6890     7.1610    19.0430 O.3          1 12V1101   0.0000
    35 C6'         18.0170    12.3000    19.5000 C.3          1 12V1101   0.0000
    36 O6'         18.1050    12.6930    18.1110 O.3          1 12V1101   0.0000
    37 C7'         24.6430    13.6130    19.7040 C.2          1 12V1101   0.0000
    38 O7'         24.4650    13.7580    18.5150 O.2          1 12V1101   0.0000
    39 C8'         26.0080    13.8230    20.3000 C.3          1 12V1101   0.0000
    40 H1          21.8852    -1.3557    20.6661 H            1 12V1101   0.0000
    41 H2          24.7729     0.9928    22.4275 H            1 12V1101   0.0000
    42 H3          23.4823     2.9342    21.9129 H            1 12V1101   0.0000
    43 H1'         22.8113    11.1969    19.4955 H            1 12V1101   0.0000
    44 H1B         20.2593     2.8006    20.1494 H            1 12V1101   0.0000
    45 H2'         22.2239    13.4861    19.1178 H            1 12V1101   0.0000
    46 H7          23.8605    13.3121    21.5178 H            1 12V1101   0.0000
    47 H8          19.8058     4.3015    23.3030 H            1 12V1101   0.0000
    48 H2B         21.7002     4.2953    22.1593 H            1 12V1101   0.0000
    49 H3'         21.2427    13.3501    21.8161 H            1 12V1101   0.0000
    50 H11         22.2719    15.1758    22.0766 H            1 12V1101   0.0000
    51 H3B         20.9098     6.1903    21.0371 H            1 12V1101   0.0000
    52 H13         19.3233     4.7547    19.2447 H            1 12V1101   0.0000
    53 H4'         19.8962    14.3298    19.4409 H            1 12V1101   0.0000
    54 H15         18.6940    15.3468    20.8832 H            1 12V1101   0.0000
    55 H4B         21.2144     5.1583    18.6004 H            1 12V1101   0.0000
    56 H5'         19.2640    12.0346    21.1194 H            1 12V1101   0.0000
    57 H5B1        23.6578     5.4168    19.0444 H            1 12V1101   0.0000
    58 H5B2        23.2201     5.9394    20.5284 H            1 12V1101   0.0000
    59 H6'1        17.3774    12.9077    19.9707 H            1 12V1101   0.0000
    60 H6'2        17.6824    11.3591    19.5519 H            1 12V1101   0.0000
    61 H6'         17.2008    12.6292    17.6886 H            1 12V1101   0.0000
    62 H8'1        26.6656    14.0087    19.5698 H            1 12V1101   0.0000
    63 H8'2        25.9810    14.5994    20.9296 H            1 12V1101   0.0000
    64 H8'3        26.2850    13.0005    20.7968 H            1 12V1101   0.0000
@<TRIPOS>BOND
     1    1    2       1
     2    1    8       1
     3    1   14       1
     4    2    3       2
     5    2    4       1
     6    4    5       1
     7    5    6       2
     8    5    7       1
     9    7    8       2
    10    9   13      ar
    11    9   19      ar
    12    9   24       1
    13    9   34       1
    14   10   12       1
    15   10   15      ar
    16   10   21      ar
    17   10   24       1
    18   11   12       1
    19   11   16       1
    20   11   32       1
    21   14   20       1
    22   14   30       1
    23   16   17       1
    24   16   22       1
    25   17   37      am
    26   18   20       1
    27   20   25       1
    28   22   23       1
    29   22   27       1
    30   25   26       1
    31   25   29       1
    32   27   28       1
    33   27   31       1
    34   29   30       1
    35   29   33       1
    36   31   32       1
    37   31   35       1
    38   33   34       1
    39   35   36       1
    40   37   38       2
    41   37   39       1
    42    4   40       1
    43    7   41       1
    44    8   42       1
    45   11   43       1
    46   39   64       1
    47   14   44       1
    48   39   63       1
    49   16   45       1
    50   17   46       1
    51   18   47       1
    52   20   48       1
    53   22   49       1
    54   23   50       1
    55   25   51       1
    56   26   52       1
    57   27   53       1
    58   28   54       1
    59   29   55       1
    60   31   56       1
    61   33   57       1
    62   33   58       1
    63   35   59       1
    64   35   60       1
    65   36   61       1
    66   39   62       1
@<TRIPOS>SUBSTRUCTURE
     1 12V1101     1 GROUP             4 A     12V     0 **** 12V A1101
