@<TRIPOS>MOLECULE
1l5q_700_1_ligand
   49    52     1     0     0
SMALL
NO_CHARGES


@<TRIPOS>ATOM
     1 C10         66.5070   -74.4680    75.7370 C.3          1 700862   0.0000
     2 C11         65.5980   -75.0290    74.6060 C.ar         1 700862   0.0000
     3 C12         65.3790   -76.4280    74.4560 C.ar         1 700862   0.0000
     4 C13         64.5360   -76.9140    73.4310 C.ar         1 700862   0.0000
     5 C14         63.9040   -76.0060    72.5490 C.ar         1 700862   0.0000
     6 C15         64.1160   -74.6100    72.6910 C.ar         1 700862   0.0000
     7 C16         64.9630   -74.1310    73.7170 C.ar         1 700862   0.0000
     8 C17         65.7020   -73.9350    76.9810 C.3          1 700862   0.0000
     9 C18         64.8840   -75.1310    77.4770 C.2          1 700862   0.0000
    10 O2          65.4430   -75.9640    78.1560 O.2          1 700862   0.0000
    11 N3          63.6120   -75.2640    77.0220 N.am         1 700862   0.0000
    12 C19         62.6590   -74.3720    76.3310 C.3          1 700862   0.0000
    13 C20         61.5860   -75.4470    76.4820 C.3          1 700862   0.0000
    14 C21         60.1960   -75.1330    77.0210 C.2          1 700862   0.0000
    15 O3          59.6500   -74.1930    76.4540 O.co2        1 700862   0.0000
    16 O4          59.7870   -75.8860    77.9060 O.co2        1 700862  -1.0000
    17 C22         62.6330   -76.2810    77.3440 C.3          1 700862   0.0000
    18 N1          66.6470   -73.4000    77.9880 N.am         1 700862   0.0000
    19 C9          66.1910   -72.7800    79.1090 C.2          1 700862   0.0000
    20 C8          67.0980   -72.2270    80.1620 C.2          1 700862   0.0000
    21 C7          68.4600   -72.2160    80.2240 C.2          1 700862   0.0000
    22 C6          68.8500   -71.5590    81.5320 C.ar         1 700862   0.0000
    23 C1          67.6020   -71.2500    82.0830 C.ar         1 700862   0.0000
    24 C2          67.4830   -70.6080    83.3470 C.ar         1 700862   0.0000
    25 C3          68.6770   -70.2870    84.0560 C.ar         1 700862   0.0000
    26 C4          69.9510   -70.5990    83.5070 C.ar         1 700862   0.0000
    27 CL1         71.3390   -70.1960    84.3820 Cl           1 700862   0.0000
    28 C5          70.0580   -71.2470    82.2100 C.ar         1 700862   0.0000
    29 N2          66.6190   -71.6630    81.2340 N.pl3        1 700862   0.0000
    30 O1          64.9790   -72.6620    79.3060 O.2          1 700862   0.0000
    31 H1          67.0487   -73.7148    75.3638 H            1 700862   0.0000
    32 H2          67.1178   -75.1979    76.0439 H            1 700862   0.0000
    33 H3          65.8243   -77.0705    75.0796 H            1 700862   0.0000
    34 H4          64.3865   -77.8975    73.3294 H            1 700862   0.0000
    35 H5          63.3066   -76.3487    71.8240 H            1 700862   0.0000
    36 H6          63.6685   -73.9680    72.0684 H            1 700862   0.0000
    37 H7          65.1145   -73.1474    73.8149 H            1 700862   0.0000
    38 H8          65.0819   -73.2072    76.6881 H            1 700862   0.0000
    39 H9          62.9027   -74.1634    75.3838 H            1 700862   0.0000
    40 H10         62.4621   -73.5219    76.8195 H            1 700862   0.0000
    41 H11         61.4793   -75.9036    75.5987 H            1 700862   0.0000
    42 H12         62.4100   -76.3523    78.3162 H            1 700862   0.0000
    43 H13         62.8412   -77.1897    76.9822 H            1 700862   0.0000
    44 H14         67.6316   -73.4958    77.8419 H            1 700862   0.0000
    45 H15         69.0866   -72.5757    79.5327 H            1 700862   0.0000
    46 H16         66.5851   -70.3877    83.7281 H            1 700862   0.0000
    47 H17         68.6182   -69.8382    84.9477 H            1 700862   0.0000
    48 H18         70.9485   -71.4647    81.8105 H            1 700862   0.0000
    49 H19         65.6422   -71.5464    81.4135 H            1 700862   0.0000
@<TRIPOS>BOND
     1    1    2       1
     2    1    8       1
     3    2    3      ar
     4    2    7      ar
     5    3    4      ar
     6    4    5      ar
     7    5    6      ar
     8    6    7      ar
     9    8    9       1
    10    8   18       1
    11    9   10       2
    12    9   11      am
    13   11   12       1
    14   11   17       1
    15   12   13       1
    16   13   14       1
    17   13   17       1
    18   14   15      ar
    19   14   16      ar
    20   18   19      am
    21   19   20       1
    22   19   30       2
    23   20   21       2
    24   20   29       1
    25   21   22       1
    26   22   23      ar
    27   22   28      ar
    28   23   24      ar
    29   23   29       1
    30   24   25      ar
    31   25   26      ar
    32   26   27       1
    33   26   28      ar
    34    1   31       1
    35    1   32       1
    36    3   33       1
    37    4   34       1
    38    5   35       1
    39    6   36       1
    40    7   37       1
    41    8   38       1
    42   12   39       1
    43   12   40       1
    44   13   41       1
    45   29   49       1
    46   17   42       1
    47   17   43       1
    48   18   44       1
    49   21   45       1
    50   24   46       1
    51   25   47       1
    52   28   48       1
@<TRIPOS>SUBSTRUCTURE
     1 700862      1 GROUP             4 A     700     0 **** 700 A 862
