@<TRIPOS>MOLECULE
4ydd_MD1_4_ligand
   73    77     1     0     0
SMALL
NO_CHARGES


@<TRIPOS>ATOM
     1 PB         232.2820   154.1870   213.8720 P.3          1 MD11004   0.0000
     2 O3B        231.4840   153.4730   212.6410 O.3          1 MD11004   0.0000
     3 O1B        233.5590   153.3650   214.1110 O.co2        1 MD11004   0.0000
     4 O2B        232.6350   155.6140   213.6250 O.co2        1 MD11004  -1.0000
     5 O3A        231.2470   153.9670   215.1460 O.3          1 MD11004   0.0000
     6 C10        231.4440   152.8600   216.0230 C.3          1 MD11004   0.0000
     7 C11        230.7530   153.2040   217.3740 C.3          1 MD11004   0.0000
     8 O11        229.4130   153.4690   217.0670 O.3          1 MD11004   0.0000
     9 C12        230.7130   151.9900   218.3110 C.2          1 MD11004   0.0000
    10 S12        231.5870   150.5600   217.6540 S.3          1 MD11004   0.0000
    11 C13        230.0720   151.8440   219.4450 C.2          1 MD11004   0.0000
    12 S13        230.0480   150.3740   220.3250 S.3          1 MD11004   0.0000
    13 C14        229.3540   152.9010   220.2630 C.3          1 MD11004   0.0000
    14 N15        227.9540   152.5120   220.4520 N.pl3        1 MD11004   0.0000
    15 C16        227.0930   153.5410   221.0470 C.2          1 MD11004   0.0000
    16 C15        225.9250   153.1140   221.6660 C.2          1 MD11004   0.0000
    17 O14        225.6720   151.9540   221.7270 O.2          1 MD11004   0.0000
    18 N17        225.1240   154.0420   222.2010 N.pl3        1 MD11004   0.0000
    19 C17        225.4650   155.3330   222.1160 C.2          1 MD11004   0.0000
    20 N16        224.5770   156.3130   222.6590 N.pl3        1 MD11004   0.0000
    21 N18        226.5980   155.7540   221.5150 N.2          1 MD11004   0.0000
    22 C20        227.4070   154.8250   220.9770 C.2          1 MD11004   0.0000
    23 N8         228.6240   155.3030   220.3330 N.pl3        1 MD11004   0.0000
    24 C7         229.5720   154.3400   219.8560 C.3          1 MD11004   0.0000
    25 PA         230.7680   154.2450   211.4140 P.3          1 MD11004   0.0000
    26 O1A        230.2280   153.1550   210.5330 O.co2        1 MD11004   0.0000
    27 O2A        229.6570   155.1230   212.0190 O.co2        1 MD11004  -1.0000
    28 O5'        231.9150   155.1240   210.6600 O.3          1 MD11004   0.0000
    29 C5'        232.6550   154.4920   209.5810 C.3          1 MD11004   0.0000
    30 C4'        233.1270   155.5890   208.6250 C.3          1 MD11004   0.0000
    31 O4'        234.1570   155.1780   207.8860 O.3          1 MD11004   0.0000
    32 C1'        233.7110   155.2620   206.3320 C.3          1 MD11004   0.0000
    33 N9         234.4640   154.2390   205.6340 N.pl3        1 MD11004   0.0000
    34 C4         235.6700   154.3700   205.1220 C.2          1 MD11004   0.0000
    35 N3         236.4870   155.4100   205.0560 N.2          1 MD11004   0.0000
    36 C2         237.6810   155.2440   204.4400 C.2          1 MD11004   0.0000
    37 N2         238.6250   156.3460   204.3450 N.pl3        1 MD11004   0.0000
    38 N1         238.0560   154.0360   203.9030 N.pl3        1 MD11004   0.0000
    39 C6         237.2630   153.0220   203.9720 C.2          1 MD11004   0.0000
    40 O6         237.6350   151.9520   203.4860 O.2          1 MD11004   0.0000
    41 C5         236.0370   153.1770   204.5840 C.2          1 MD11004   0.0000
    42 N7         235.0460   152.3210   204.7970 N.2          1 MD11004   0.0000
    43 C8         234.0680   152.9570   205.4530 C.2          1 MD11004   0.0000
    44 C2'        232.3700   155.1200   206.3790 C.3          1 MD11004   0.0000
    45 O2'        231.7350   155.7340   205.2360 O.3          1 MD11004   0.0000
    46 C3'        231.9760   155.9370   207.6100 C.3          1 MD11004   0.0000
    47 O3'        231.9940   157.2450   207.2870 O.3          1 MD11004   0.0000
    48 H1         232.4219   152.7095   216.1684 H            1 MD11004   0.0000
    49 H2         231.0348   152.0364   215.6303 H            1 MD11004   0.0000
    50 H3         231.1873   153.9895   217.8149 H            1 MD11004   0.0000
    51 H4         229.0012   152.6605   216.6466 H            1 MD11004   0.0000
    52 H5         231.6255   149.7116   218.1819 H            1 MD11004   0.0000
    53 H6         229.5431   150.3150   221.1862 H            1 MD11004   0.0000
    54 H7         229.7597   152.8328   221.1745 H            1 MD11004   0.0000
    55 H8         227.6096   151.6094   220.1939 H            1 MD11004   0.0000
    56 H9         224.2775   153.7732   222.6606 H            1 MD11004   0.0000
    57 H10        224.8114   157.2837   222.6067 H            1 MD11004   0.0000
    58 H11        223.7215   156.0278   223.0911 H            1 MD11004   0.0000
    59 H12        228.7939   156.2827   220.2262 H            1 MD11004   0.0000
    60 H13        229.5610   154.3756   218.8567 H            1 MD11004   0.0000
    61 H14        230.4740   154.6142   220.1894 H            1 MD11004   0.0000
    62 H5'1       232.0630   153.8495   209.0944 H            1 MD11004   0.0000
    63 H5'2       233.4442   154.0026   209.9520 H            1 MD11004   0.0000
    64 H4'        233.3832   156.4053   209.1428 H            1 MD11004   0.0000
    65 H1'        233.9422   156.1621   205.9628 H            1 MD11004   0.0000
    66 H19        239.5044   156.2130   203.8879 H            1 MD11004   0.0000
    67 H20        238.3948   157.2368   204.7368 H            1 MD11004   0.0000
    68 H21        233.2021   152.5579   205.7546 H            1 MD11004   0.0000
    69 H2'        232.1053   154.1604   206.4748 H            1 MD11004   0.0000
    70 H23        232.2847   156.5097   204.9260 H            1 MD11004   0.0000
    71 H3'        231.0820   155.6597   207.9620 H            1 MD11004   0.0000
    72 H25        231.8689   157.7941   208.1133 H            1 MD11004   0.0000
    73 H26        238.9465   153.9432   203.4575 H            1 MD11004   0.0000
@<TRIPOS>BOND
     1    1    2       1
     2    1    3      ar
     3    1    4      ar
     4    1    5       1
     5    2   25       1
     6    5    6       1
     7    6    7       1
     8    7    8       1
     9    7    9       1
    10    9   10       1
    11    9   11       2
    12   11   12       1
    13   11   13       1
    14   13   14       1
    15   13   24       1
    16   14   15       1
    17   15   16       1
    18   15   22       2
    19   16   17       2
    20   16   18       1
    21   18   19       1
    22   19   20       1
    23   19   21       2
    24   21   22       1
    25   22   23       1
    26   23   24       1
    27   25   26      ar
    28   25   27      ar
    29   25   28       1
    30   28   29       1
    31   29   30       1
    32   30   31       1
    33   30   46       1
    34   31   32       1
    35   32   33       1
    36   32   44       1
    37   33   34       1
    38   33   43       1
    39   34   35       1
    40   34   41       2
    41   35   36       2
    42   36   37       1
    43   36   38       1
    44   38   39       1
    45   39   40       2
    46   39   41       1
    47   41   42       1
    48   42   43       2
    49   44   45       1
    50   44   46       1
    51   46   47       1
    52   47   72       1
    53    6   48       1
    54    6   49       1
    55    7   50       1
    56    8   51       1
    57   10   52       1
    58   12   53       1
    59   13   54       1
    60   14   55       1
    61   18   56       1
    62   20   57       1
    63   20   58       1
    64   23   59       1
    65   24   60       1
    66   24   61       1
    67   46   71       1
    68   29   62       1
    69   29   63       1
    70   30   64       1
    71   32   65       1
    72   45   70       1
    73   37   66       1
    74   37   67       1
    75   43   68       1
    76   44   69       1
    77   38   73       1
@<TRIPOS>SUBSTRUCTURE
     1 MD11004     1 GROUP             4 C     MD1     0 **** MD1 C1004
