@<TRIPOS>MOLECULE
3ung_ADP_1_ligand
   39    41     1     0     0
SMALL
NO_CHARGES


@<TRIPOS>ATOM
     1 PB          15.3120    30.1280     6.5630 P.3          1 ADP904   0.0000
     2 O1B         13.8060    30.1280     6.4680 O.co2        1 ADP904   0.0000
     3 O2B         15.9310    31.4250     6.0950 O.co2        1 ADP904  -1.0000
     4 O3B         15.9800    28.8870     6.0230 O.co2        1 ADP904  -1.0000
     5 PA          14.7570    30.8840     9.2330 P.3          1 ADP904   0.0000
     6 O1A         13.8700    31.8490     8.4770 O.co2        1 ADP904   0.0000
     7 O2A         15.6880    31.3960    10.3100 O.co2        1 ADP904  -1.0000
     8 O3A         15.6530    30.0980     8.1430 O.3          1 ADP904   0.0000
     9 O5'         13.7900    29.7600     9.8840 O.3          1 ADP904   0.0000
    10 C5'         14.1010    29.0630    11.0990 C.3          1 ADP904   0.0000
    11 C4'         13.4280    27.6900    11.0740 C.3          1 ADP904   0.0000
    12 O4'         12.9850    27.2870    12.3710 O.3          1 ADP904   0.0000
    13 C3'         12.2030    27.6900    10.1770 C.3          1 ADP904   0.0000
    14 O3'         12.4750    26.9450     8.9890 O.3          1 ADP904   0.0000
    15 C2'         11.1120    26.9920    10.9530 C.3          1 ADP904   0.0000
    16 O2'         10.6910    25.8340    10.2320 O.3          1 ADP904   0.0000
    17 C1'         11.7400    26.5860    12.2750 C.3          1 ADP904   0.0000
    18 N9          10.8040    26.8910    13.4050 N.pl3        1 ADP904   0.0000
    19 C8          10.4960    28.1090    13.9120 C.2          1 ADP904   0.0000
    20 N7           9.5980    28.0280    14.9360 N.2          1 ADP904   0.0000
    21 C5           9.3110    26.7210    15.1040 C.ar         1 ADP904   0.0000
    22 C6           8.4500    25.9140    16.0110 C.ar         1 ADP904   0.0000
    23 N6           7.6700    26.4780    16.9800 N.pl3        1 ADP904   0.0000
    24 N1           8.4610    24.5750    15.8320 N.ar         1 ADP904   0.0000
    25 C2           9.2020    23.9730    14.8860 C.ar         1 ADP904   0.0000
    26 N3          10.0080    24.6330    14.0420 N.ar         1 ADP904   0.0000
    27 C4          10.1040    25.9830    14.0940 C.ar         1 ADP904   0.0000
    28 H5'1        13.7641    29.5869    11.8813 H            1 ADP904   0.0000
    29 H5'2        15.0915    28.9491    11.1757 H            1 ADP904   0.0000
    30 H4'         14.0812    27.0152    10.7305 H            1 ADP904   0.0000
    31 H3'         11.9315    28.6257     9.9516 H            1 ADP904   0.0000
    32 H5          12.3695    27.5390     8.1915 H            1 ADP904   0.0000
    33 H2'         10.3405    27.6095    11.1062 H            1 ADP904   0.0000
    34 H7          11.2173    25.7591     9.3850 H            1 ADP904   0.0000
    35 H1'         11.9213    25.6027    12.2599 H            1 ADP904   0.0000
    36 H9          10.8820    28.9677    13.5749 H            1 ADP904   0.0000
    37 H10          7.1061    25.8983    17.5682 H            1 ADP904   0.0000
    38 H11          7.6628    27.4706    17.1012 H            1 ADP904   0.0000
    39 H12          9.1492    22.9775    14.8073 H            1 ADP904   0.0000
@<TRIPOS>BOND
     1    1    2      ar
     2    1    3      ar
     3    1    4      ar
     4    1    8       1
     5    5    6      ar
     6    5    7      ar
     7    5    8       1
     8    5    9       1
     9    9   10       1
    10   10   11       1
    11   11   12       1
    12   11   13       1
    13   12   17       1
    14   13   14       1
    15   13   15       1
    16   15   16       1
    17   15   17       1
    18   17   18       1
    19   18   19       1
    20   18   27       1
    21   19   20       2
    22   20   21       1
    23   21   22      ar
    24   21   27      ar
    25   22   23       1
    26   22   24      ar
    27   24   25      ar
    28   25   26      ar
    29   26   27      ar
    30   25   39       1
    31   23   38       1
    32   23   37       1
    33   10   28       1
    34   10   29       1
    35   11   30       1
    36   13   31       1
    37   14   32       1
    38   15   33       1
    39   16   34       1
    40   17   35       1
    41   19   36       1
@<TRIPOS>SUBSTRUCTURE
     1 ADP904      1 GROUP             4 C     ADP     0 **** ADP C 904
