@<TRIPOS>MOLECULE
3rl7_TYR_LEU_VAL_THR_SER_3_ligand
   84    84     5     0     0
SMALL
NO_CHARGES


@<TRIPOS>ATOM
     1 N           26.0600   -18.0710    -8.8470 N.4          1 TYR2838   1.0000
     2 CA          25.7140   -19.0870    -9.8840 C.3          1 TYR2838   0.0000
     3 C           25.0090   -18.4390   -11.0660 C.2          1 TYR2838   0.0000
     4 O           25.6410   -17.7310   -11.8550 O.2          1 TYR2838   0.0000
     5 CB          24.8350   -20.1790    -9.2760 C.3          1 TYR2838   0.0000
     6 CG          24.9750   -21.5410    -9.9170 C.ar         1 TYR2838   0.0000
     7 CD1         26.0930   -21.8710   -10.6820 C.ar         1 TYR2838   0.0000
     8 CD2         24.0060   -22.5170    -9.7140 C.ar         1 TYR2838   0.0000
     9 CE1         26.2210   -23.1310   -11.2520 C.ar         1 TYR2838   0.0000
    10 CE2         24.1250   -23.7730   -10.2700 C.ar         1 TYR2838   0.0000
    11 CZ          25.2310   -24.0750   -11.0380 C.ar         1 TYR2838   0.0000
    12 OH          25.3400   -25.3290   -11.5940 O.3          1 TYR2838   0.0000
    13 H1          26.6348   -17.3613    -9.2544 H            1 TYR2838   0.0000
    14 H2          25.2213   -17.6577    -8.4923 H            1 TYR2838   0.0000
    15 HA          26.5605   -19.5070   -10.2112 H            1 TYR2838   0.0000
    16 HB1         23.8807   -19.8925    -9.3610 H            1 TYR2838   0.0000
    17 HB2         25.0721   -20.2655    -8.3084 H            1 TYR2838   0.0000
    18 HD1         26.8127   -21.1910   -10.8222 H            1 TYR2838   0.0000
    19 HD2         23.2061   -22.3036    -9.1531 H            1 TYR2838   0.0000
    20 HE1         27.0196   -23.3540   -11.8110 H            1 TYR2838   0.0000
    21 HE2         23.4148   -24.4603   -10.1178 H            1 TYR2838   0.0000
    22 HH          24.6237   -26.0091   -11.4380 H            1 TYR2838   0.0000
    23 N           23.7050   -18.6760   -11.1870 N.am         2 LEU2839   0.0000
    24 CA          22.9320   -18.1070   -12.2830 C.3          2 LEU2839   0.0000
    25 C           22.2580   -16.7920   -11.9110 C.2          2 LEU2839   0.0000
    26 O           21.5810   -16.6810   -10.8850 O.2          2 LEU2839   0.0000
    27 CB          21.9240   -19.1160   -12.8390 C.3          2 LEU2839   0.0000
    28 CG          22.5450   -20.1110   -13.8270 C.3          2 LEU2839   0.0000
    29 CD1         22.8250   -21.4710   -13.1770 C.3          2 LEU2839   0.0000
    30 CD2         21.6830   -20.2570   -15.0940 C.3          2 LEU2839   0.0000
    31 H11         23.2471   -19.2556   -10.5129 H            2 LEU2839   0.0000
    32 H12         23.5774   -17.9047   -13.0196 H            2 LEU2839   0.0000
    33 H13         21.1979   -18.6137   -13.3084 H            2 LEU2839   0.0000
    34 H14         21.5338   -19.6292   -12.0745 H            2 LEU2839   0.0000
    35 HG          23.4260   -19.7331   -14.1116 H            2 LEU2839   0.0000
    36 HD11        23.2280   -22.0872   -13.8537 H            2 LEU2839   0.0000
    37 HD12        23.4609   -21.3514   -12.4145 H            2 LEU2839   0.0000
    38 HD13        21.9687   -21.8614   -12.8388 H            2 LEU2839   0.0000
    39 HD21        22.1134   -20.9106   -15.7165 H            2 LEU2839   0.0000
    40 HD22        20.7730   -20.5863   -14.8420 H            2 LEU2839   0.0000
    41 HD23        21.6026   -19.3689   -15.5466 H            2 LEU2839   0.0000
    42 N           22.4750   -15.7990   -12.7660 N.am         3 VAL2840   0.0000
    43 CA          21.8960   -14.4780   -12.5980 C.3          3 VAL2840   0.0000
    44 C           20.7980   -14.2970   -13.6330 C.2          3 VAL2840   0.0000
    45 O           21.0200   -14.4750   -14.8340 O.2          3 VAL2840   0.0000
    46 CB          22.9640   -13.3700   -12.7300 C.3          3 VAL2840   0.0000
    47 CG1         22.3390   -11.9890   -12.5860 C.3          3 VAL2840   0.0000
    48 CG2         24.0450   -13.5590   -11.6790 C.3          3 VAL2840   0.0000
    49 H22         23.0614   -15.9681   -13.5582 H            3 VAL2840   0.0000
    50 H23         21.4883   -14.4216   -11.6866 H            3 VAL2840   0.0000
    51 HB          23.3837   -13.4375   -13.6352 H            3 VAL2840   0.0000
    52 HG11        23.0493   -11.2907   -12.6751 H            3 VAL2840   0.0000
    53 HG12        21.6515   -11.8581   -13.3003 H            3 VAL2840   0.0000
    54 HG13        21.9058   -11.9112   -11.6881 H            3 VAL2840   0.0000
    55 HG21        24.7309   -12.8374   -11.7728 H            3 VAL2840   0.0000
    56 HG22        23.6356   -13.5133   -10.7678 H            3 VAL2840   0.0000
    57 HG23        24.4799   -14.4507   -11.8047 H            3 VAL2840   0.0000
    58 N           19.6090   -13.9580   -13.1480 N.am         4 THR2841   0.0000
    59 CA          18.4460   -13.7660   -13.9960 C.3          4 THR2841   0.0000
    60 C           17.8650   -12.3830   -13.7350 C.2          4 THR2841   0.0000
    61 O           17.4590   -12.0700   -12.6130 O.2          4 THR2841   0.0000
    62 CB          17.3810   -14.8510   -13.7290 C.3          4 THR2841   0.0000
    63 OG1         17.9920   -16.1470   -13.7880 O.3          4 THR2841   0.0000
    64 CG2         16.2530   -14.7770   -14.7560 C.3          4 THR2841   0.0000
    65 H31         19.5109   -13.8301   -12.1611 H            4 THR2841   0.0000
    66 H32         18.7310   -13.8215   -14.9529 H            4 THR2841   0.0000
    67 H33         16.9984   -14.7132   -12.8154 H            4 THR2841   0.0000
    68 HG1         18.3193   -16.4029   -12.8784 H            4 THR2841   0.0000
    69 H35         15.5778   -15.4885   -14.5614 H            4 THR2841   0.0000
    70 H36         15.8151   -13.8794   -14.7061 H            4 THR2841   0.0000
    71 H37         16.6275   -14.9147   -15.6730 H            4 THR2841   0.0000
    72 N           17.8410   -11.5590   -14.7790 N.am         5 SER2842   0.0000
    73 CA          17.3110   -10.2020   -14.6940 C.3          5 SER2842   0.0000
    74 C           15.8100   -10.1710   -14.9690 C.2          5 SER2842   0.0000
    75 O           15.2990   -10.9540   -15.7700 O.2          5 SER2842   0.0000
    76 CB          18.0500    -9.2740   -15.6630 C.3          5 SER2842   0.0000
    77 OG          18.1390    -9.8430   -16.9580 O.3          5 SER2842   0.0000
    78 H38         18.1996   -11.8816   -15.6550 H            5 SER2842   0.0000
    79 H39         17.4638    -9.8662   -13.7645 H            5 SER2842   0.0000
    80 H40         15.2344    -9.5064   -14.4926 H            5 SER2842   0.0000
    81 H41         18.9733    -9.1097   -15.3157 H            5 SER2842   0.0000
    82 H42         17.5568    -8.4061   -15.7222 H            5 SER2842   0.0000
    83 H43         18.6253    -9.2148   -17.5654 H            5 SER2842   0.0000
    84 H44         26.5557   -18.5131    -8.0995 H            5 SER2842   0.0000
@<TRIPOS>BOND
     1    1    2       1
     2    2    5       1
     3    2    3       1
     4    5    6       1
     5    6    7      ar
     6    6    8      ar
     7    7    9      ar
     8    9   11      ar
     9   11   12       1
    10   11   10      ar
    11   10    8      ar
    12    3    4       2
    13    1   13       1
    14    1   14       1
    15    2   15       1
    16    3   23      am
    17    5   16       1
    18    5   17       1
    19    7   18       1
    20    8   19       1
    21    9   20       1
    22   10   21       1
    23   12   22       1
    24   23   24       1
    25   24   27       1
    26   24   25       1
    27   27   28       1
    28   28   29       1
    29   28   30       1
    30   25   26       2
    31   30   41       1
    32   23   31       1
    33   24   32       1
    34   25   42      am
    35   27   33       1
    36   27   34       1
    37   28   35       1
    38   29   36       1
    39   29   37       1
    40   29   38       1
    41   30   39       1
    42   30   40       1
    43   42   43       1
    44   43   46       1
    45   43   44       1
    46   46   47       1
    47   46   48       1
    48   44   45       2
    49   48   57       1
    50   42   49       1
    51   43   50       1
    52   44   58      am
    53   46   51       1
    54   47   52       1
    55   47   53       1
    56   47   54       1
    57   48   55       1
    58   48   56       1
    59   58   59       1
    60   59   62       1
    61   59   60       1
    62   62   64       1
    63   62   63       1
    64   60   61       2
    65   64   71       1
    66   58   65       1
    67   59   66       1
    68   60   72      am
    69   62   67       1
    70   63   68       1
    71   64   69       1
    72   64   70       1
    73   72   73       1
    74   73   76       1
    75   73   74       1
    76   76   77       1
    77   74   75       2
    78   77   83       1
    79   72   78       1
    80   73   79       1
    81   74   80       1
    82   76   81       1
    83   76   82       1
    84    1   84       1
@<TRIPOS>SUBSTRUCTURE
     1 TYR2838     1 RESIDUE           4 I     TYR     0 **** TYR I2838
     2 LEU2839    23 RESIDUE           4 I     LEU     0 **** LEU I2839
     3 VAL2840    42 RESIDUE           4 I     VAL     0 **** VAL I2840
     4 THR2841    58 RESIDUE           4 I     THR     0 **** THR I2841
     5 SER2842    72 RESIDUE           4 I     SER     0 **** SER I2842
