@<TRIPOS>MOLECULE
4r29_SAM_2_ligand
   50    52     1     0     0
SMALL
NO_CHARGES


@<TRIPOS>ATOM
     1 N           24.5650    -1.8770    44.0640 N.4          1 SAM301   1.0000
     2 CA          25.7750    -1.1680    44.4690 C.3          1 SAM301   0.0000
     3 C           25.5420    -0.1330    45.5570 C.2          1 SAM301   0.0000
     4 O           24.4160     0.2760    45.8410 O.co2        1 SAM301   0.0000
     5 OXT         26.5030     0.3460    46.1490 O.co2        1 SAM301  -1.0000
     6 CB          26.3940    -0.4580    43.2730 C.3          1 SAM301   0.0000
     7 CG          26.9100    -1.4380    42.2360 C.3          1 SAM301   0.0000
     8 SD          27.8340    -0.5670    40.9590 S.3          1 SAM301   1.0000
     9 CE          28.2860    -1.9820    39.9160 C.3          1 SAM301   0.0000
    10 C5'         29.3840    -0.2200    41.8390 C.3          1 SAM301   0.0000
    11 C4'         30.2950     0.7330    41.0710 C.3          1 SAM301   0.0000
    12 O4'         31.2820     1.3050    41.9110 O.3          1 SAM301   0.0000
    13 C3'         31.0590     0.0190    39.9740 C.3          1 SAM301   0.0000
    14 O3'         30.3530     0.1430    38.7660 O.3          1 SAM301   0.0000
    15 C2'         32.3950     0.7370    39.9290 C.3          1 SAM301   0.0000
    16 O2'         32.2600     1.8760    39.1060 O.3          1 SAM301   0.0000
    17 C1'         32.5890     1.2790    41.3320 C.3          1 SAM301   0.0000
    18 N9          33.4310     0.4690    42.2540 N.pl3        1 SAM301   0.0000
    19 C8          34.5240     0.9130    42.9600 C.2          1 SAM301   0.0000
    20 N7          34.9840    -0.0930    43.7420 N.2          1 SAM301   0.0000
    21 C5          34.1940    -1.1800    43.5520 C.ar         1 SAM301   0.0000
    22 C6          34.2190    -2.4650    44.0980 C.ar         1 SAM301   0.0000
    23 N6          35.1510    -2.8200    44.9830 N.pl3        1 SAM301   0.0000
    24 N1          33.2700    -3.3750    43.7090 N.ar         1 SAM301   0.0000
    25 C2          32.3020    -3.0180    42.7910 C.ar         1 SAM301   0.0000
    26 N3          32.2770    -1.7480    42.2540 N.ar         1 SAM301   0.0000
    27 C4          33.2110    -0.8390    42.6290 C.ar         1 SAM301   0.0000
    28 H1          24.7901    -2.5391    43.3491 H            1 SAM301   0.0000
    29 H2          24.1796    -2.3561    44.8526 H            1 SAM301   0.0000
    30 HA          26.4328    -1.8394    44.8103 H            1 SAM301   0.0000
    31 HB1         27.1557     0.1065    43.5911 H            1 SAM301   0.0000
    32 HB2         25.7010     0.1254    42.8495 H            1 SAM301   0.0000
    33 HG1         26.1362    -1.9132    41.8173 H            1 SAM301   0.0000
    34 HG2         27.5091    -2.1039    42.6806 H            1 SAM301   0.0000
    35 HE1         28.8213    -1.6623    39.1342 H            1 SAM301   0.0000
    36 HE2         28.8298    -2.6294    40.4499 H            1 SAM301   0.0000
    37 HE3         27.4559    -2.4339    39.5892 H            1 SAM301   0.0000
    38 H5'1        29.8705    -1.0818    41.9826 H            1 SAM301   0.0000
    39 H5'2        29.1646     0.1904    42.7241 H            1 SAM301   0.0000
    40 H4'         29.7431     1.4625    40.6670 H            1 SAM301   0.0000
    41 H3'         31.1873    -0.9449    40.2071 H            1 SAM301   0.0000
    42 H15         30.9974     0.1381    38.0013 H            1 SAM301   0.0000
    43 H2'         33.1433     0.1399    39.6401 H            1 SAM301   0.0000
    44 H17         32.4784     1.6322    38.1611 H            1 SAM301   0.0000
    45 H1'         32.9501     2.2102    41.2825 H            1 SAM301   0.0000
    46 H19         34.9164     1.8311    42.9051 H            1 SAM301   0.0000
    47 H20         35.1530    -3.7449    45.3633 H            1 SAM301   0.0000
    48 H21         35.8480    -2.1614    45.2665 H            1 SAM301   0.0000
    49 H22         31.6125    -3.6868    42.5130 H            1 SAM301   0.0000
    50 H23         23.8964    -1.2216    43.7128 H            1 SAM301   0.0000
@<TRIPOS>BOND
     1    1    2       1
     2    2    3       1
     3    2    6       1
     4    3    4      ar
     5    3    5      ar
     6    6    7       1
     7    7    8       1
     8    8    9       1
     9    8   10       1
    10   10   11       1
    11   11   12       1
    12   11   13       1
    13   12   17       1
    14   13   14       1
    15   13   15       1
    16   15   16       1
    17   15   17       1
    18   17   18       1
    19   18   19       1
    20   18   27       1
    21   19   20       2
    22   20   21       1
    23   21   22      ar
    24   21   27      ar
    25   22   23       1
    26   22   24      ar
    27   24   25      ar
    28   25   26      ar
    29   26   27      ar
    30    1   28       1
    31    1   29       1
    32    2   30       1
    33    1   50       1
    34    6   31       1
    35    6   32       1
    36    7   33       1
    37    7   34       1
    38    9   35       1
    39    9   36       1
    40    9   37       1
    41   10   38       1
    42   10   39       1
    43   11   40       1
    44   13   41       1
    45   14   42       1
    46   15   43       1
    47   16   44       1
    48   17   45       1
    49   19   46       1
    50   23   47       1
    51   23   48       1
    52   25   49       1
@<TRIPOS>SUBSTRUCTURE
     1 SAM301      1 GROUP             4 B     SAM     0 **** SAM B 301
