@<TRIPOS>MOLECULE
2iw1_U2F_1_ligand
   57    59     1     0     0
SMALL
NO_CHARGES


@<TRIPOS>ATOM
     1 C1          -4.4770    15.2830   -20.6840 C.3          1 U2F900   0.0000
     2 O1          -4.9540    14.0580   -20.1190 O.3          1 U2F900   0.0000
     3 PB          -5.2670    13.6890   -18.5930 P.3          1 U2F900   0.0000
     4 O1B         -4.3060    12.6210   -18.1430 O.co2        1 U2F900   0.0000
     5 O2B         -5.4490    14.9240   -17.7390 O.co2        1 U2F900  -1.0000
     6 O3A         -6.7270    12.9970   -18.6510 O.3          1 U2F900   0.0000
     7 PA          -7.3220    11.9310   -19.7150 P.3          1 U2F900   0.0000
     8 O1A         -7.5170    12.5520   -21.0790 O.co2        1 U2F900   0.0000
     9 O2A         -8.5250    11.3450   -19.0510 O.co2        1 U2F900  -1.0000
    10 O5'         -6.2010    10.7930   -19.8670 O.3          1 U2F900   0.0000
    11 C5'         -5.7830     9.9810   -18.7770 C.3          1 U2F900   0.0000
    12 C4'         -5.3730     8.6130   -19.3240 C.3          1 U2F900   0.0000
    13 O4'         -4.5310     7.9600   -18.3750 O.3          1 U2F900   0.0000
    14 C1'         -5.1380     6.7490   -17.9290 C.3          1 U2F900   0.0000
    15 C2'         -6.6120     6.9180   -18.2500 C.3          1 U2F900   0.0000
    16 C3'         -6.5560     7.6840   -19.5580 C.3          1 U2F900   0.0000
    17 O3'         -6.2180     6.7990   -20.6420 O.3          1 U2F900   0.0000
    18 O2'         -7.2800     5.6460   -18.3320 O.3          1 U2F900   0.0000
    19 N1          -4.8860     6.5790   -16.5010 N.pl3        1 U2F900   0.0000
    20 C6'         -4.5280     5.3740   -16.0370 C.2          1 U2F900   0.0000
    21 O6'         -4.4060     4.3920   -16.8080 O.2          1 U2F900   0.0000
    22 N3          -4.2960     5.2060   -14.7120 N.pl3        1 U2F900   0.0000
    23 C7'         -4.4080     6.2360   -13.8440 C.2          1 U2F900   0.0000
    24 O7'         -4.1730     6.0510   -12.6310 O.2          1 U2F900   0.0000
    25 C8'         -4.7600     7.4910   -14.3060 C.2          1 U2F900   0.0000
    26 C9'         -4.9960     7.6430   -15.6670 C.2          1 U2F900   0.0000
    27 C2          -5.5320    16.3970   -20.7610 C.3          1 U2F900   0.0000
    28 F1          -5.7470    16.9580   -19.5270 F            1 U2F900   0.0000
    29 C3          -6.8270    15.8200   -21.3270 C.3          1 U2F900   0.0000
    30 O3          -7.8810    16.7970   -21.4090 O.3          1 U2F900   0.0000
    31 C4          -6.5440    15.2130   -22.7010 C.3          1 U2F900   0.0000
    32 O4          -7.6500    14.3530   -23.0200 O.3          1 U2F900   0.0000
    33 C5          -5.2550    14.3730   -22.7650 C.3          1 U2F900   0.0000
    34 C6          -4.8220    14.2360   -24.2230 C.3          1 U2F900   0.0000
    35 O6          -3.6250    13.4530   -24.3020 O.3          1 U2F900   0.0000
    36 O5          -4.1410    14.9110   -22.0240 O.3          1 U2F900   0.0000
    37 H1          -3.6653    15.6021   -20.1948 H            1 U2F900   0.0000
    38 H5'1        -6.5359     9.8733   -18.1278 H            1 U2F900   0.0000
    39 H5'2        -5.0045    10.4079   -18.3168 H            1 U2F900   0.0000
    40 H4'         -4.8732     8.7353   -20.1814 H            1 U2F900   0.0000
    41 H1'         -4.7646     5.9725   -18.4366 H            1 U2F900   0.0000
    42 H2'         -7.0469     7.4820   -17.5480 H            1 U2F900   0.0000
    43 H3'         -7.4011     8.1887   -19.7344 H            1 U2F900   0.0000
    44 H8          -6.9818     6.1772   -20.8152 H            1 U2F900   0.0000
    45 H9          -8.0400     5.7097   -18.9788 H            1 U2F900   0.0000
    46 H10         -4.0370     4.3026   -14.3702 H            1 U2F900   0.0000
    47 H8'         -4.8423     8.2660   -13.6794 H            1 U2F900   0.0000
    48 H9'         -5.2476     8.5392   -16.0325 H            1 U2F900   0.0000
    49 H13         -5.2011    17.1078   -21.3816 H            1 U2F900   0.0000
    50 H14         -7.1310    15.0857   -20.7200 H            1 U2F900   0.0000
    51 H15         -8.4042    16.7952   -20.5568 H            1 U2F900   0.0000
    52 H16         -6.4920    15.9460   -23.3792 H            1 U2F900   0.0000
    53 H17         -7.7255    13.6360   -22.3270 H            1 U2F900   0.0000
    54 H18         -5.4569    13.4602   -22.4101 H            1 U2F900   0.0000
    55 H19         -4.6506    15.1441   -24.6052 H            1 U2F900   0.0000
    56 H20         -5.5477    13.7866   -24.7440 H            1 U2F900   0.0000
    57 H21         -3.7947    12.6399   -24.8588 H            1 U2F900   0.0000
@<TRIPOS>BOND
     1    1    2       1
     2    1   27       1
     3    1   36       1
     4    2    3       1
     5    3    4      ar
     6    3    5      ar
     7    3    6       1
     8    6    7       1
     9    7    8      ar
    10    7    9      ar
    11    7   10       1
    12   10   11       1
    13   11   12       1
    14   12   13       1
    15   12   16       1
    16   13   14       1
    17   14   15       1
    18   14   19       1
    19   15   16       1
    20   15   18       1
    21   16   17       1
    22   19   20       1
    23   19   26       1
    24   20   21       2
    25   20   22       1
    26   22   23       1
    27   23   24       2
    28   23   25       1
    29   25   26       2
    30   27   28       1
    31   27   29       1
    32   29   30       1
    33   29   31       1
    34   31   32       1
    35   31   33       1
    36   33   34       1
    37   33   36       1
    38   34   35       1
    39    1   37       1
    40   35   57       1
    41   34   56       1
    42   11   38       1
    43   11   39       1
    44   12   40       1
    45   14   41       1
    46   15   42       1
    47   16   43       1
    48   17   44       1
    49   18   45       1
    50   22   46       1
    51   25   47       1
    52   26   48       1
    53   27   49       1
    54   29   50       1
    55   30   51       1
    56   31   52       1
    57   32   53       1
    58   33   54       1
    59   34   55       1
@<TRIPOS>SUBSTRUCTURE
     1 U2F900      1 GROUP             4 A     U2F     0 **** U2F A 900
