@<TRIPOS>MOLECULE
1wuu_ANP_2_ligand
   44    46     1     0     0
SMALL
NO_CHARGES


@<TRIPOS>ATOM
     1 PG          61.1430    63.2490    44.2130 P.3          1 ANP395   0.0000
     2 O1G         62.0510    62.0560    44.2340 O.co2        1 ANP395   0.0000
     3 O2G         61.3270    64.1090    45.4520 O.co2        1 ANP395  -1.0000
     4 O3G         59.6500    62.7030    44.0430 O.co2        1 ANP395  -1.0000
     5 PB          62.2440    63.5530    41.6380 P.3          1 ANP395   0.0000
     6 O1B         61.7850    62.1440    41.3750 O.co2        1 ANP395   0.0000
     7 O2B         61.9680    64.4580    40.4510 O.co2        1 ANP395  -1.0000
     8 N3B         61.5150    64.1010    42.9320 N.3          1 ANP395   0.0000
     9 PA          64.7930    62.2920    41.4620 P.3          1 ANP395   0.0000
    10 O1A         66.0040    62.2190    42.3330 O.co2        1 ANP395   0.0000
    11 O2A         64.0850    60.9630    41.4560 O.co2        1 ANP395  -1.0000
    12 O3A         63.7940    63.4400    41.9490 O.3          1 ANP395   0.0000
    13 O5'         65.2790    62.7160    40.0070 O.3          1 ANP395   0.0000
    14 C5'         64.6460    62.0720    38.9030 C.3          1 ANP395   0.0000
    15 C4'         65.7400    61.6800    37.9470 C.3          1 ANP395   0.0000
    16 O4'         65.2890    60.5480    37.1650 O.3          1 ANP395   0.0000
    17 C3'         66.1900    62.7450    36.9540 C.3          1 ANP395   0.0000
    18 O3'         67.2010    63.5960    37.5130 O.3          1 ANP395   0.0000
    19 C2'         66.7240    61.8320    35.8780 C.3          1 ANP395   0.0000
    20 O2'         68.0340    61.3520    36.2440 O.3          1 ANP395   0.0000
    21 C1'         65.7070    60.7000    35.8840 C.3          1 ANP395   0.0000
    22 N9          64.5310    61.0370    35.1220 N.pl3        1 ANP395   0.0000
    23 C8          63.2340    61.1770    35.5230 C.2          1 ANP395   0.0000
    24 N7          62.3840    61.3490    34.4920 N.2          1 ANP395   0.0000
    25 C5          63.2300    61.3720    33.3850 C.ar         1 ANP395   0.0000
    26 C6          62.9530    61.5340    32.0190 C.ar         1 ANP395   0.0000
    27 N6          61.8400    61.6880    31.4760 N.pl3        1 ANP395   0.0000
    28 N1          64.0810    61.4720    31.2660 N.ar         1 ANP395   0.0000
    29 C2          65.3590    61.3040    31.7340 C.ar         1 ANP395   0.0000
    30 N3          65.6430    61.1670    32.9870 N.ar         1 ANP395   0.0000
    31 C4          64.5420    61.2100    33.7660 C.ar         1 ANP395   0.0000
    32 H3B         62.0964    64.8420    43.2681 H            1 ANP395   0.0000
    33 H5'1        64.0074    62.6996    38.4576 H            1 ANP395   0.0000
    34 H5'2        64.1527    61.2597    39.2142 H            1 ANP395   0.0000
    35 H4'         66.5354    61.3943    38.4815 H            1 ANP395   0.0000
    36 H3'         65.4128    63.2790    36.6210 H            1 ANP395   0.0000
    37 H6          67.7387    63.0808    38.1804 H            1 ANP395   0.0000
    38 H2'         66.7442    62.2936    34.9911 H            1 ANP395   0.0000
    39 H8          68.3803    60.7481    35.5261 H            1 ANP395   0.0000
    40 H1'         66.1179    59.8542    35.5438 H            1 ANP395   0.0000
    41 H10         62.9453    61.1543    36.4802 H            1 ANP395   0.0000
    42 H11         61.7782    61.7932    30.4835 H            1 ANP395   0.0000
    43 H12         61.0100    61.7062    32.0334 H            1 ANP395   0.0000
    44 H13         66.1087    61.2867    31.0724 H            1 ANP395   0.0000
@<TRIPOS>BOND
     1    1    2      ar
     2    1    3      ar
     3    1    4      ar
     4    1    8       1
     5    5    6      ar
     6    5    7      ar
     7    5    8       1
     8    5   12       1
     9    9   10      ar
    10    9   11      ar
    11    9   12       1
    12    9   13       1
    13   13   14       1
    14   14   15       1
    15   15   16       1
    16   15   17       1
    17   16   21       1
    18   17   18       1
    19   17   19       1
    20   19   20       1
    21   19   21       1
    22   21   22       1
    23   22   23       1
    24   22   31       1
    25   23   24       2
    26   24   25       1
    27   25   26      ar
    28   25   31      ar
    29   26   27       1
    30   26   28      ar
    31   28   29      ar
    32   29   30      ar
    33   30   31      ar
    34   29   44       1
    35   27   43       1
    36   27   42       1
    37    8   32       1
    38   23   41       1
    39   14   33       1
    40   14   34       1
    41   15   35       1
    42   17   36       1
    43   18   37       1
    44   19   38       1
    45   20   39       1
    46   21   40       1
@<TRIPOS>SUBSTRUCTURE
     1 ANP395      1 GROUP             4 B     ANP     0 **** ANP B 395
