@<TRIPOS>MOLECULE
5lc1_NAD_4_ligand
   70    74     1     0     0
SMALL
NO_CHARGES


@<TRIPOS>ATOM
     1 PA          88.8570   185.5940    14.3620 P.3          1 NAD500   0.0000
     2 O1A         89.0570   184.3070    15.1340 O.co2        1 NAD500   0.0000
     3 O2A         87.5540   186.2960    14.4010 O.co2        1 NAD500  -1.0000
     4 O5B         90.0880   186.5600    14.7240 O.3          1 NAD500   0.0000
     5 C5B         90.0540   187.9510    14.3990 C.3          1 NAD500   0.0000
     6 C4B         91.0040   188.7290    15.2820 C.3          1 NAD500   0.0000
     7 O4B         91.1240   190.0370    14.7430 O.3          1 NAD500   0.0000
     8 C3B         90.5060   188.8440    16.7170 C.3          1 NAD500   0.0000
     9 O3B         91.4910   188.3890    17.6110 O.3          1 NAD500   0.0000
    10 C2B         90.1420   190.3100    16.8950 C.3          1 NAD500   0.0000
    11 O2B         90.3870   190.8210    18.2140 O.3          1 NAD500   0.0000
    12 C1B         91.0490   190.9060    15.8170 C.3          1 NAD500   0.0000
    13 N9A         90.6080   192.2410    15.4230 N.pl3        1 NAD500   0.0000
    14 C8A         89.3520   192.6560    15.2190 C.2          1 NAD500   0.0000
    15 N7A         89.3460   193.9570    14.9000 N.2          1 NAD500   0.0000
    16 C5A         90.6350   194.3860    14.9430 C.ar         1 NAD500   0.0000
    17 C6A         91.2980   195.6940    14.7530 C.ar         1 NAD500   0.0000
    18 N6A         90.5310   196.7650    14.4720 N.pl3        1 NAD500   0.0000
    19 N1A         92.6330   195.7250    14.8300 N.ar         1 NAD500   0.0000
    20 C2A         93.3110   194.5980    15.1540 C.ar         1 NAD500   0.0000
    21 N3A         92.7560   193.3900    15.3940 N.ar         1 NAD500   0.0000
    22 C4A         91.4550   193.2460    15.2910 C.ar         1 NAD500   0.0000
    23 O3          89.0980   185.3360    12.8070 O.3          1 NAD500   0.0000
    24 PN          90.0310   184.1600    12.2360 P.3          1 NAD500   0.0000
    25 O1N         91.3790   183.9710    12.8790 O.co2        1 NAD500   0.0000
    26 O2N         89.1020   182.9880    12.0930 O.co2        1 NAD500  -1.0000
    27 O5D         90.2950   184.6420    10.6930 O.3          1 NAD500   0.0000
    28 C5D         91.3770   185.5180    10.4130 C.3          1 NAD500   0.0000
    29 C4D         91.4520   185.8350     8.9390 C.3          1 NAD500   0.0000
    30 O4D         91.2810   184.6340     8.1470 O.3          1 NAD500   0.0000
    31 C3D         90.3300   186.7700     8.5020 C.3          1 NAD500   0.0000
    32 O3D         90.8130   187.6270     7.4440 O.3          1 NAD500   0.0000
    33 C2D         89.2990   185.8020     7.9610 C.3          1 NAD500   0.0000
    34 O2D         88.4110   186.3720     7.0130 O.3          1 NAD500   0.0000
    35 C1D         90.1640   184.7590     7.2930 C.3          1 NAD500   0.0000
    36 N1N         89.4380   183.4960     7.1410 N.ar         1 NAD500   1.0000
    37 C2N         89.1740   182.6670     8.2020 C.ar         1 NAD500   0.0000
    38 C3N         88.5190   181.4460     8.0120 C.ar         1 NAD500   0.0000
    39 C7N         88.1940   180.4870     9.1480 C.2          1 NAD500   0.0000
    40 O7N         87.5900   179.4640     8.8570 O.2          1 NAD500   0.0000
    41 N7N         88.5950   180.7400    10.3950 N.am         1 NAD500   0.0000
    42 C4N         88.1100   181.1130     6.7220 C.ar         1 NAD500   0.0000
    43 C5N         88.3830   181.9710     5.6630 C.ar         1 NAD500   0.0000
    44 C6N         89.0510   183.1650     5.8970 C.ar         1 NAD500   0.0000
    45 H5B1        89.1250   188.2966    14.5315 H            1 NAD500   0.0000
    46 H5B2        90.3212   188.0715    13.4429 H            1 NAD500   0.0000
    47 H4B         91.9000   188.2850    15.2768 H            1 NAD500   0.0000
    48 H3B         89.6829   188.2863    16.8242 H            1 NAD500   0.0000
    49 H5          92.3174   188.9422    17.5062 H            1 NAD500   0.0000
    50 H2B         89.1835   190.4535    16.6487 H            1 NAD500   0.0000
    51 H7          91.3161   191.1876    18.2622 H            1 NAD500   0.0000
    52 H1B         91.9670   190.9908    16.2045 H            1 NAD500   0.0000
    53 H8A         88.5381   192.0798    15.2937 H            1 NAD500   0.0000
    54 H6A1        90.9536   197.6615    14.3387 H            1 NAD500   0.0000
    55 H6A2        89.5390   196.6636    14.3967 H            1 NAD500   0.0000
    56 H2A         94.3064   194.6660    15.2212 H            1 NAD500   0.0000
    57 H5D1        92.2314   185.0831    10.6974 H            1 NAD500   0.0000
    58 H5D2        91.2495   186.3682    10.9239 H            1 NAD500   0.0000
    59 H4D         92.3367   186.2517     8.7299 H            1 NAD500   0.0000
    60 H3D         89.9710   187.2996     9.2705 H            1 NAD500   0.0000
    61 H17         91.2030   188.4582     7.8402 H            1 NAD500   0.0000
    62 H2D         88.7833   185.3918     8.7132 H            1 NAD500   0.0000
    63 H19         87.7630   185.6763     6.7029 H            1 NAD500   0.0000
    64 H1D         90.4594   185.0889     6.3964 H            1 NAD500   0.0000
    65 H2N         89.4535   182.9393     9.1227 H            1 NAD500   0.0000
    66 H7N1        88.3737   180.1001    11.1309 H            1 NAD500   0.0000
    67 H7N2        89.1169   181.5695    10.5938 H            1 NAD500   0.0000
    68 H4N         87.6201   180.2567     6.5582 H            1 NAD500   0.0000
    69 H5N         88.0990   181.7288     4.7353 H            1 NAD500   0.0000
    70 H6N         89.2456   183.7829     5.1352 H            1 NAD500   0.0000
@<TRIPOS>BOND
     1    1    2      ar
     2    1    3      ar
     3    1    4       1
     4    1   23       1
     5    4    5       1
     6    5    6       1
     7    6    7       1
     8    6    8       1
     9    7   12       1
    10    8    9       1
    11    8   10       1
    12   10   11       1
    13   10   12       1
    14   12   13       1
    15   13   14       1
    16   13   22       1
    17   14   15       2
    18   15   16       1
    19   16   17      ar
    20   16   22      ar
    21   17   18       1
    22   17   19      ar
    23   19   20      ar
    24   20   21      ar
    25   21   22      ar
    26   23   24       1
    27   24   25      ar
    28   24   26      ar
    29   24   27       1
    30   27   28       1
    31   28   29       1
    32   29   30       1
    33   29   31       1
    34   30   35       1
    35   31   32       1
    36   31   33       1
    37   33   34       1
    38   33   35       1
    39   35   36       1
    40   36   37      ar
    41   36   44      ar
    42   37   38      ar
    43   38   39       1
    44   38   42      ar
    45   39   40       2
    46   39   41      am
    47   42   43      ar
    48   43   44      ar
    49   44   70       1
    50    5   45       1
    51    5   46       1
    52    6   47       1
    53    8   48       1
    54    9   49       1
    55   10   50       1
    56   11   51       1
    57   12   52       1
    58   14   53       1
    59   18   54       1
    60   18   55       1
    61   20   56       1
    62   43   69       1
    63   28   57       1
    64   28   58       1
    65   29   59       1
    66   31   60       1
    67   32   61       1
    68   33   62       1
    69   34   63       1
    70   35   64       1
    71   37   65       1
    72   41   66       1
    73   41   67       1
    74   42   68       1
@<TRIPOS>SUBSTRUCTURE
     1 NAD500      1 GROUP             4 D     NAD     0 **** NAD D 500
