@<TRIPOS>MOLECULE
3a28_NAD_1_ligand
   70    74     1     0     0
SMALL
NO_CHARGES


@<TRIPOS>ATOM
     1 PA         -13.7440    18.5520    16.6130 P.3          1 NAD2300   0.0000
     2 O1A        -13.5030    19.8820    16.0220 O.co2        1 NAD2300   0.0000
     3 O2A        -15.1580    18.1970    16.8380 O.co2        1 NAD2300  -1.0000
     4 O5B        -12.9660    18.3960    18.0030 O.3          1 NAD2300   0.0000
     5 C5B        -11.5910    18.7980    18.0770 C.3          1 NAD2300   0.0000
     6 C4B        -11.2110    19.0260    19.5250 C.3          1 NAD2300   0.0000
     7 O4B         -9.8300    19.4310    19.4680 O.3          1 NAD2300   0.0000
     8 C3B        -11.9740    20.1740    20.1840 C.3          1 NAD2300   0.0000
     9 O3B        -12.6560    19.6840    21.3530 O.3          1 NAD2300   0.0000
    10 C2B        -10.8710    21.2100    20.4140 C.3          1 NAD2300   0.0000
    11 O2B        -11.0960    22.0230    21.5850 O.3          1 NAD2300   0.0000
    12 C1B         -9.6220    20.3570    20.4800 C.3          1 NAD2300   0.0000
    13 N9A         -8.3910    21.0880    20.1770 N.pl3        1 NAD2300   0.0000
    14 C8A         -8.0990    21.7930    19.0460 C.2          1 NAD2300   0.0000
    15 N7A         -6.8960    22.3640    19.0690 N.2          1 NAD2300   0.0000
    16 C5A         -6.3790    22.0020    20.2930 C.ar         1 NAD2300   0.0000
    17 C6A         -5.1450    22.2990    20.9070 C.ar         1 NAD2300   0.0000
    18 N6A         -4.1750    23.0330    20.3990 N.pl3        1 NAD2300   0.0000
    19 N1A         -4.9160    21.7810    22.1560 N.ar         1 NAD2300   0.0000
    20 C2A         -5.9170    21.0110    22.7120 C.ar         1 NAD2300   0.0000
    21 N3A         -7.0980    20.6750    22.2370 N.ar         1 NAD2300   0.0000
    22 C4A         -7.2790    21.2100    20.9980 C.ar         1 NAD2300   0.0000
    23 O3         -13.0410    17.4870    15.6970 O.3          1 NAD2300   0.0000
    24 PN         -13.2590    15.8640    15.4690 P.3          1 NAD2300   0.0000
    25 O1N        -13.7380    15.3210    16.7520 O.co2        1 NAD2300   0.0000
    26 O2N        -14.1880    15.6800    14.3350 O.co2        1 NAD2300  -1.0000
    27 O5D        -11.7470    15.4670    15.1550 O.3          1 NAD2300   0.0000
    28 C5D        -10.9890    14.8130    16.1730 C.3          1 NAD2300   0.0000
    29 C4D         -9.7280    14.2830    15.5480 C.3          1 NAD2300   0.0000
    30 O4D        -10.1210    13.2860    14.5550 O.3          1 NAD2300   0.0000
    31 C3D         -8.8530    15.2890    14.7960 C.3          1 NAD2300   0.0000
    32 O3D         -7.4730    15.0040    15.0070 O.3          1 NAD2300   0.0000
    33 C2D         -9.2600    15.0700    13.3460 C.3          1 NAD2300   0.0000
    34 O2D         -8.1860    15.4360    12.4590 O.3          1 NAD2300   0.0000
    35 C1D         -9.5490    13.5990    13.3150 C.3          1 NAD2300   0.0000
    36 N1N        -10.4440    13.2310    12.2220 N.ar         1 NAD2300   1.0000
    37 C2N        -11.7580    13.7360    12.0840 C.ar         1 NAD2300   0.0000
    38 C3N        -12.6260    13.3340    10.9230 C.ar         1 NAD2300   0.0000
    39 C7N        -13.9890    13.9010    10.8370 C.2          1 NAD2300   0.0000
    40 O7N        -14.6800    13.5530     9.8640 O.2          1 NAD2300   0.0000
    41 N7N        -14.5030    14.7500    11.7400 N.am         1 NAD2300   0.0000
    42 C4N        -12.0760    12.3570     9.9070 C.ar         1 NAD2300   0.0000
    43 C5N        -10.6840    11.9320    10.2090 C.ar         1 NAD2300   0.0000
    44 C6N         -9.9550    12.3220    11.2440 C.ar         1 NAD2300   0.0000
    45 H5B1       -11.4628    19.6450    17.5611 H            1 NAD2300   0.0000
    46 H5B2       -11.0123    18.0806    17.6892 H            1 NAD2300   0.0000
    47 H4B        -11.3116    18.1837    20.0545 H            1 NAD2300   0.0000
    48 H3B        -12.6440    20.5406    19.5385 H            1 NAD2300   0.0000
    49 H5         -12.0575    19.7716    22.1493 H            1 NAD2300   0.0000
    50 H2B        -10.8142    21.8055    19.6127 H            1 NAD2300   0.0000
    51 H7         -10.6721    21.5879    22.3794 H            1 NAD2300   0.0000
    52 H1B         -9.5525    19.9008    21.3672 H            1 NAD2300   0.0000
    53 H8A         -8.7285    21.8734    18.2731 H            1 NAD2300   0.0000
    54 H6A1        -3.3352    23.1825    20.9210 H            1 NAD2300   0.0000
    55 H6A2        -4.2789    23.4403    19.4916 H            1 NAD2300   0.0000
    56 H2A         -5.7125    20.6502    23.6220 H            1 NAD2300   0.0000
    57 H5D1       -11.5195    14.0581    16.5586 H            1 NAD2300   0.0000
    58 H5D2       -10.7609    15.4640    16.8970 H            1 NAD2300   0.0000
    59 H4D         -9.1775    13.8382    16.2545 H            1 NAD2300   0.0000
    60 H3D         -9.0663    16.2229    15.0830 H            1 NAD2300   0.0000
    61 H17         -7.3529    14.5857    15.9073 H            1 NAD2300   0.0000
    62 H2D        -10.0847    15.5932    13.1313 H            1 NAD2300   0.0000
    63 H19         -7.9595    16.4011    12.5903 H            1 NAD2300   0.0000
    64 H1D         -8.6888    13.0987    13.2160 H            1 NAD2300   0.0000
    65 H2N        -12.1157    14.3704    12.7692 H            1 NAD2300   0.0000
    66 H7N1       -15.4331    15.0990    11.6254 H            1 NAD2300   0.0000
    67 H7N2       -13.9560    15.0338    12.5275 H            1 NAD2300   0.0000
    68 H4N        -12.5941    12.0316     9.1160 H            1 NAD2300   0.0000
    69 H5N        -10.2576    11.2912     9.5706 H            1 NAD2300   0.0000
    70 H6N         -9.0264    11.9639    11.3411 H            1 NAD2300   0.0000
@<TRIPOS>BOND
     1    1    2      ar
     2    1    3      ar
     3    1    4       1
     4    1   23       1
     5    4    5       1
     6    5    6       1
     7    6    7       1
     8    6    8       1
     9    7   12       1
    10    8    9       1
    11    8   10       1
    12   10   11       1
    13   10   12       1
    14   12   13       1
    15   13   14       1
    16   13   22       1
    17   14   15       2
    18   15   16       1
    19   16   17      ar
    20   16   22      ar
    21   17   18       1
    22   17   19      ar
    23   19   20      ar
    24   20   21      ar
    25   21   22      ar
    26   23   24       1
    27   24   25      ar
    28   24   26      ar
    29   24   27       1
    30   27   28       1
    31   28   29       1
    32   29   30       1
    33   29   31       1
    34   30   35       1
    35   31   32       1
    36   31   33       1
    37   33   34       1
    38   33   35       1
    39   35   36       1
    40   36   37      ar
    41   36   44      ar
    42   37   38      ar
    43   38   39       1
    44   38   42      ar
    45   39   40       2
    46   39   41      am
    47   42   43      ar
    48   43   44      ar
    49   44   70       1
    50    5   45       1
    51    5   46       1
    52    6   47       1
    53    8   48       1
    54    9   49       1
    55   10   50       1
    56   11   51       1
    57   12   52       1
    58   14   53       1
    59   18   54       1
    60   18   55       1
    61   20   56       1
    62   43   69       1
    63   28   57       1
    64   28   58       1
    65   29   59       1
    66   31   60       1
    67   32   61       1
    68   33   62       1
    69   34   63       1
    70   35   64       1
    71   37   65       1
    72   41   66       1
    73   41   67       1
    74   42   68       1
@<TRIPOS>SUBSTRUCTURE
     1 NAD2300     1 GROUP             4 A     NAD     0 **** NAD A2300
