@<TRIPOS>MOLECULE
4fgr_ADP_2_ligand
   39    41     1     0     0
SMALL
NO_CHARGES


@<TRIPOS>ATOM
     1 PB          -3.3440    30.9870    23.5770 P.3          1 ADP302   0.0000
     2 O1B         -4.5040    31.3680    22.6850 O.co2        1 ADP302   0.0000
     3 O2B         -2.0740    30.5550    22.8720 O.co2        1 ADP302  -1.0000
     4 O3B         -3.7050    30.1160    24.7790 O.co2        1 ADP302  -1.0000
     5 PA          -3.7950    33.1640    25.3230 P.3          1 ADP302   0.0000
     6 O1A         -5.2590    33.1960    24.9670 O.co2        1 ADP302   0.0000
     7 O2A         -3.3210    32.6170    26.6480 O.co2        1 ADP302  -1.0000
     8 O3A         -2.9400    32.4240    24.1850 O.3          1 ADP302   0.0000
     9 O5'         -3.1950    34.6150    25.0330 O.3          1 ADP302   0.0000
    10 C5'         -2.1520    35.0640    25.8800 C.3          1 ADP302   0.0000
    11 C4'         -0.8190    35.0740    25.1610 C.3          1 ADP302   0.0000
    12 O4'          0.0310    35.7650    26.0680 O.3          1 ADP302   0.0000
    13 C3'         -0.2230    33.6720    24.9470 C.3          1 ADP302   0.0000
    14 O3'          0.1770    33.5410    23.5780 O.3          1 ADP302   0.0000
    15 C2'          0.9800    33.6040    25.8740 C.3          1 ADP302   0.0000
    16 O2'          2.1550    33.0110    25.3110 O.3          1 ADP302   0.0000
    17 C1'          1.2640    35.0730    26.0760 C.3          1 ADP302   0.0000
    18 N9           1.9480    35.3530    27.3210 N.pl3        1 ADP302   0.0000
    19 C8           1.7550    34.8000    28.5220 C.2          1 ADP302   0.0000
    20 N7           2.6190    35.3580    29.4230 N.2          1 ADP302   0.0000
    21 C5           3.3540    36.3020    28.7870 C.ar         1 ADP302   0.0000
    22 C6           4.4350    37.2740    29.1180 C.ar         1 ADP302   0.0000
    23 N6           4.9190    37.3620    30.3750 N.pl3        1 ADP302   0.0000
    24 N1           4.9400    38.0670    28.1380 N.ar         1 ADP302   0.0000
    25 C2           4.4610    38.0030    26.8750 C.ar         1 ADP302   0.0000
    26 N3           3.4790    37.1490    26.4880 N.ar         1 ADP302   0.0000
    27 C4           2.9000    36.2870    27.3850 C.ar         1 ADP302   0.0000
    28 H5'1        -2.0903    34.4547    26.6706 H            1 ADP302   0.0000
    29 H5'2        -2.3613    35.9916    26.1896 H            1 ADP302   0.0000
    30 H4'         -0.8875    35.5667    24.2935 H            1 ADP302   0.0000
    31 H3'         -0.8905    32.9669    25.1863 H            1 ADP302   0.0000
    32 H5           1.1590    33.3572    23.5338 H            1 ADP302   0.0000
    33 H2'          0.7388    33.1651    26.7396 H            1 ADP302   0.0000
    34 H7           2.1467    32.0260    25.4836 H            1 ADP302   0.0000
    35 H1'          1.8253    35.4021    25.3166 H            1 ADP302   0.0000
    36 H9           1.0833    34.0888    28.7295 H            1 ADP302   0.0000
    37 H10          5.6441    38.0172    30.5868 H            1 ADP302   0.0000
    38 H11          4.5524    36.7720    31.0944 H            1 ADP302   0.0000
    39 H12          4.8510    38.6176    26.1893 H            1 ADP302   0.0000
@<TRIPOS>BOND
     1    1    2      ar
     2    1    3      ar
     3    1    4      ar
     4    1    8       1
     5    5    6      ar
     6    5    7      ar
     7    5    8       1
     8    5    9       1
     9    9   10       1
    10   10   11       1
    11   11   12       1
    12   11   13       1
    13   12   17       1
    14   13   14       1
    15   13   15       1
    16   15   16       1
    17   15   17       1
    18   17   18       1
    19   18   19       1
    20   18   27       1
    21   19   20       2
    22   20   21       1
    23   21   22      ar
    24   21   27      ar
    25   22   23       1
    26   22   24      ar
    27   24   25      ar
    28   25   26      ar
    29   26   27      ar
    30   25   39       1
    31   23   38       1
    32   23   37       1
    33   10   28       1
    34   10   29       1
    35   11   30       1
    36   13   31       1
    37   14   32       1
    38   15   33       1
    39   16   34       1
    40   17   35       1
    41   19   36       1
@<TRIPOS>SUBSTRUCTURE
     1 ADP302      1 GROUP             4 B     ADP     0 **** ADP B 302
