@<TRIPOS>MOLECULE
4nce_MGT_1_ligand
   49    51     1     0     0
SMALL
NO_CHARGES


@<TRIPOS>ATOM
     1 PG         -48.8550   -12.5600     6.5050 P.3          1 MGT501   0.0000
     2 O1G        -48.2650   -12.4670     5.1460 O.co2        1 MGT501   0.0000
     3 O2G        -47.7240   -13.0030     7.5720 O.co2        1 MGT501  -1.0000
     4 O3G        -50.0940   -13.5990     6.5530 O.co2        1 MGT501  -1.0000
     5 O3B        -49.4360   -11.1200     6.9250 O.3          1 MGT501   0.0000
     6 PB         -49.6530    -9.7490     6.1230 P.3          1 MGT501   0.0000
     7 O1B        -50.4250    -8.8480     7.0150 O.co2        1 MGT501   0.0000
     8 O2B        -50.4840    -9.9930     4.7590 O.co2        1 MGT501  -1.0000
     9 O3A        -48.2010    -9.1350     5.7770 O.3          1 MGT501   0.0000
    10 PA         -47.3710    -7.9130     6.4240 P.3          1 MGT501   0.0000
    11 O1A        -46.4520    -7.3800     5.3900 O.co2        1 MGT501   0.0000
    12 O2A        -46.5690    -8.3490     7.7490 O.co2        1 MGT501  -1.0000
    13 O5'        -48.4280    -6.8280     6.9670 O.3          1 MGT501   0.0000
    14 C5'        -48.2520    -5.4170     6.9810 C.3          1 MGT501   0.0000
    15 C4'        -49.3670    -4.7340     6.1810 C.3          1 MGT501   0.0000
    16 O4'        -48.7290    -4.1120     5.0760 O.3          1 MGT501   0.0000
    17 C3'        -50.4470    -5.6930     5.6170 C.3          1 MGT501   0.0000
    18 O3'        -51.7370    -5.1200     5.7770 O.3          1 MGT501   0.0000
    19 C2'        -50.1070    -5.7670     4.1020 C.3          1 MGT501   0.0000
    20 O2'        -51.2570    -5.9100     3.2560 O.3          1 MGT501   0.0000
    21 C1'        -49.4690    -4.3760     3.8860 C.3          1 MGT501   0.0000
    22 N9         -48.5360    -4.4190     2.7710 N.pl3        1 MGT501   0.0000
    23 C8         -47.2160    -5.0550     2.7630 C.3          1 MGT501   0.0000
    24 N7         -46.6190    -4.6940     1.4840 N.pl3        1 MGT501   0.0000
    25 CM7        -45.2510    -5.0370     1.1030 C.3          1 MGT501   0.0000
    26 C5         -47.6160    -3.9810     0.7490 C.2          1 MGT501   0.0000
    27 C6         -47.6650    -3.4240    -0.5550 C.2          1 MGT501   0.0000
    28 O6         -46.7090    -3.5010    -1.3210 O.2          1 MGT501   0.0000
    29 N1         -48.7990    -2.7930    -0.9630 N.pl3        1 MGT501   0.0000
    30 C2         -49.8740    -2.7020    -0.1330 C.2          1 MGT501   0.0000
    31 N2         -51.0060    -2.0730    -0.5590 N.pl3        1 MGT501   0.0000
    32 N3         -49.8460    -3.2030     1.0780 N.2          1 MGT501   0.0000
    33 C4         -48.7510    -3.8380     1.5430 C.2          1 MGT501   0.0000
    34 H5'1       -47.3674    -5.1908     6.5733 H            1 MGT501   0.0000
    35 H5'2       -48.2767    -5.0908     7.9260 H            1 MGT501   0.0000
    36 H4'        -49.8047    -4.0366     6.7485 H            1 MGT501   0.0000
    37 H3'        -50.3934    -6.5945     6.0465 H            1 MGT501   0.0000
    38 H5         -52.1663    -5.0099     4.8806 H            1 MGT501   0.0000
    39 H2'        -49.4430    -6.4930     3.9230 H            1 MGT501   0.0000
    40 H7         -51.1829    -6.7594     2.7335 H            1 MGT501   0.0000
    41 H1'        -50.1709    -3.6791     3.7388 H            1 MGT501   0.0000
    42 H9         -47.3059    -6.0480     2.8391 H            1 MGT501   0.0000
    43 H10        -46.6580    -4.7119     3.5186 H            1 MGT501   0.0000
    44 HM71       -45.0629    -4.6870     0.1853 H            1 MGT501   0.0000
    45 HM72       -44.6112    -4.6277     1.7535 H            1 MGT501   0.0000
    46 HM73       -45.1425    -6.0311     1.1094 H            1 MGT501   0.0000
    47 H14        -48.8431    -2.3934    -1.8786 H            1 MGT501   0.0000
    48 H15        -51.7980    -2.0039     0.0476 H            1 MGT501   0.0000
    49 H16        -51.0443    -1.6807    -1.4780 H            1 MGT501   0.0000
@<TRIPOS>BOND
     1    1    2      ar
     2    1    3      ar
     3    1    4      ar
     4    1    5       1
     5    5    6       1
     6    6    7      ar
     7    6    8      ar
     8    6    9       1
     9    9   10       1
    10   10   11      ar
    11   10   12      ar
    12   10   13       1
    13   13   14       1
    14   14   15       1
    15   15   16       1
    16   15   17       1
    17   16   21       1
    18   17   18       1
    19   17   19       1
    20   19   20       1
    21   19   21       1
    22   21   22       1
    23   22   23       1
    24   22   33       1
    25   23   24       1
    26   24   25       1
    27   24   26       1
    28   26   27       1
    29   26   33       2
    30   27   28       2
    31   27   29       1
    32   29   30       1
    33   30   31       1
    34   30   32       2
    35   32   33       1
    36   31   49       1
    37   31   48       1
    38   29   47       1
    39   25   46       1
    40   14   34       1
    41   14   35       1
    42   15   36       1
    43   17   37       1
    44   18   38       1
    45   19   39       1
    46   20   40       1
    47   21   41       1
    48   23   42       1
    49   23   43       1
    50   25   44       1
    51   25   45       1
@<TRIPOS>SUBSTRUCTURE
     1 MGT501      1 GROUP             4 A     MGT     0 **** MGT A 501
