@<TRIPOS>MOLECULE
1civ_NAP_1_ligand
   73    77     1     0     0
SMALL
NO_CHARGES


@<TRIPOS>ATOM
     1 PA           6.7060   118.2900    44.7940 P.3          1 NAP386   0.0000
     2 O1A          5.5440   119.2040    44.7210 O.co2        1 NAP386   0.0000
     3 O2A          8.0380   118.9550    44.8130 O.co2        1 NAP386  -1.0000
     4 O5B          6.6090   117.3180    46.0890 O.3          1 NAP386   0.0000
     5 C5B          7.5460   116.2260    46.2790 C.3          1 NAP386   0.0000
     6 C4B          7.3840   115.6210    47.6640 C.3          1 NAP386   0.0000
     7 O4B          8.0730   114.4120    48.0420 O.3          1 NAP386   0.0000
     8 C3B          7.7790   116.6070    48.7220 C.3          1 NAP386   0.0000
     9 O3B          6.6640   117.4680    48.9150 O.3          1 NAP386   0.0000
    10 C2B          8.0770   115.7140    49.9240 C.3          1 NAP386   0.0000
    11 O2B          7.4010   115.9180    51.1630 O.3          1 NAP386   0.0000
    12 C1B          7.6700   114.3660    49.4160 C.3          1 NAP386   0.0000
    13 N9A          7.8870   113.2410    50.3620 N.pl3        1 NAP386   0.0000
    14 C8A          8.9490   112.4220    50.4790 C.2          1 NAP386   0.0000
    15 N7A          8.6410   111.3510    51.2270 N.2          1 NAP386   0.0000
    16 C5A          7.3660   111.5460    51.5690 C.ar         1 NAP386   0.0000
    17 C6A          6.6210   110.7510    52.4410 C.ar         1 NAP386   0.0000
    18 N6A          7.2430   109.9470    53.2910 N.pl3        1 NAP386   0.0000
    19 N1A          5.3600   111.1680    52.7040 N.ar         1 NAP386   0.0000
    20 C2A          4.8810   112.3130    52.2280 C.ar         1 NAP386   0.0000
    21 N3A          5.6210   113.0860    51.4390 N.ar         1 NAP386   0.0000
    22 C4A          6.8740   112.7280    51.0700 C.ar         1 NAP386   0.0000
    23 O3           6.6420   117.2340    43.5800 O.3          1 NAP386   0.0000
    24 PN           5.5310   116.8810    42.4760 P.3          1 NAP386   0.0000
    25 O1N          6.0870   117.0930    41.1080 O.co2        1 NAP386   0.0000
    26 O2N          4.3810   117.6970    42.9210 O.co2        1 NAP386  -1.0000
    27 O5D          5.1510   115.3100    42.6610 O.3          1 NAP386   0.0000
    28 C5D          6.1370   114.3010    42.9720 C.3          1 NAP386   0.0000
    29 C4D          5.8360   112.9240    42.3750 C.3          1 NAP386   0.0000
    30 O4D          4.5690   112.9280    41.6750 O.3          1 NAP386   0.0000
    31 C3D          6.9000   112.5620    41.3540 C.3          1 NAP386   0.0000
    32 O3D          7.3120   111.1900    41.3740 O.3          1 NAP386   0.0000
    33 C2D          6.2690   113.0360    40.0480 C.3          1 NAP386   0.0000
    34 O2D          6.8300   112.3850    38.9030 O.3          1 NAP386   0.0000
    35 C1D          4.7930   112.7440    40.2640 C.3          1 NAP386   0.0000
    36 N1N          3.9030   113.5840    39.4340 N.ar         1 NAP386   1.0000
    37 C2N          2.8630   112.9610    38.7400 C.ar         1 NAP386   0.0000
    38 C3N          2.0370   113.6970    37.8980 C.ar         1 NAP386   0.0000
    39 C7N          0.8780   113.0070    37.1630 C.2          1 NAP386   0.0000
    40 O7N          0.4740   113.4320    36.0750 O.2          1 NAP386   0.0000
    41 N7N          0.4930   111.8330    37.6560 N.am         1 NAP386   0.0000
    42 C4N          2.2690   115.0640    37.7410 C.ar         1 NAP386   0.0000
    43 C5N          3.3030   115.6960    38.4310 C.ar         1 NAP386   0.0000
    44 C6N          4.1190   114.9620    39.2880 C.ar         1 NAP386   0.0000
    45 P2B          6.9530   117.3410    51.7480 P.3          1 NAP386   0.0000
    46 O1X          7.8930   118.2990    51.1010 O.co2        1 NAP386   0.0000
    47 O2X          7.1300   117.1470    53.2060 O.co2        1 NAP386  -1.0000
    48 O3X          5.5400   117.5350    51.3470 O.co2        1 NAP386  -1.0000
    49 H5B1         8.4790   116.5714    46.1778 H            1 NAP386   0.0000
    50 H5B2         7.3747   115.5217    45.5901 H            1 NAP386   0.0000
    51 H4B          6.4074   115.4446    47.7871 H            1 NAP386   0.0000
    52 H3B          8.5899   117.1240    48.4477 H            1 NAP386   0.0000
    53 H5           6.1523   117.5475    48.0596 H            1 NAP386   0.0000
    54 H2B          9.0632   115.7131    50.0898 H            1 NAP386   0.0000
    55 H1B          6.6735   114.4324    49.3644 H            1 NAP386   0.0000
    56 H8A          9.8441   112.5887    50.0655 H            1 NAP386   0.0000
    57 H6A1         6.7131   109.3756    53.9177 H            1 NAP386   0.0000
    58 H6A2         8.2423   109.9117    53.3058 H            1 NAP386   0.0000
    59 H2A          3.9522   112.5966    52.4664 H            1 NAP386   0.0000
    60 H5D1         6.1871   114.2075    43.9664 H            1 NAP386   0.0000
    61 H5D2         7.0216   114.6083    42.6211 H            1 NAP386   0.0000
    62 H4D          5.8180   112.2374    43.1019 H            1 NAP386   0.0000
    63 H3D          7.7044   113.1287    41.5320 H            1 NAP386   0.0000
    64 H16          7.6891   110.9683    42.2732 H            1 NAP386   0.0000
    65 H2D          6.3987   114.0237    39.9603 H            1 NAP386   0.0000
    66 H18          7.8108   112.5749    38.8588 H            1 NAP386   0.0000
    67 H1D          4.6237   111.7845    40.0389 H            1 NAP386   0.0000
    68 H2N          2.7115   111.9786    38.8496 H            1 NAP386   0.0000
    69 H7N1        -0.2564   111.3310    37.2243 H            1 NAP386   0.0000
    70 H7N2         0.9530   111.4525    38.4583 H            1 NAP386   0.0000
    71 H4N          1.6870   115.5966    37.1265 H            1 NAP386   0.0000
    72 H5N          3.4585   116.6764    38.3103 H            1 NAP386   0.0000
    73 H6N          4.8530   115.4137    39.7952 H            1 NAP386   0.0000
@<TRIPOS>BOND
     1    1    2      ar
     2    1    3      ar
     3    1    4       1
     4    1   23       1
     5    4    5       1
     6    5    6       1
     7    6    7       1
     8    6    8       1
     9    7   12       1
    10    8    9       1
    11    8   10       1
    12   10   11       1
    13   10   12       1
    14   11   45       1
    15   12   13       1
    16   13   14       1
    17   13   22       1
    18   14   15       2
    19   15   16       1
    20   16   17      ar
    21   16   22      ar
    22   17   18       1
    23   17   19      ar
    24   19   20      ar
    25   20   21      ar
    26   21   22      ar
    27   23   24       1
    28   24   25      ar
    29   24   26      ar
    30   24   27       1
    31   27   28       1
    32   28   29       1
    33   29   30       1
    34   29   31       1
    35   30   35       1
    36   31   32       1
    37   31   33       1
    38   33   34       1
    39   33   35       1
    40   35   36       1
    41   36   37      ar
    42   36   44      ar
    43   37   38      ar
    44   38   39       1
    45   38   42      ar
    46   39   40       2
    47   39   41      am
    48   42   43      ar
    49   43   44      ar
    50   45   46      ar
    51   45   47      ar
    52   45   48      ar
    53   43   72       1
    54    5   49       1
    55    5   50       1
    56    6   51       1
    57    8   52       1
    58    9   53       1
    59   10   54       1
    60   12   55       1
    61   14   56       1
    62   18   57       1
    63   18   58       1
    64   20   59       1
    65   44   73       1
    66   28   60       1
    67   28   61       1
    68   29   62       1
    69   31   63       1
    70   32   64       1
    71   33   65       1
    72   34   66       1
    73   35   67       1
    74   37   68       1
    75   41   69       1
    76   41   70       1
    77   42   71       1
@<TRIPOS>SUBSTRUCTURE
     1 NAP386      1 GROUP             4 A     NAP     0 **** NAP A 386
