@<TRIPOS>MOLECULE
1vpm_COA_2_ligand
   80    82     1     0     0
SMALL
NO_CHARGES


@<TRIPOS>ATOM
     1 N1A         30.6930    77.4190    41.3930 N.ar         1 COA200   0.0000
     2 C2A         29.6890    78.3310    41.6140 C.ar         1 COA200   0.0000
     3 N3A         29.4980    79.3770    40.7180 N.ar         1 COA200   0.0000
     4 C4A         30.2890    79.4800    39.6310 C.ar         1 COA200   0.0000
     5 C5A         31.3160    78.5670    39.3940 C.ar         1 COA200   0.0000
     6 C6A         31.5210    77.5260    40.2780 C.ar         1 COA200   0.0000
     7 N6A         32.5300    76.6380    40.0740 N.pl3        1 COA200   0.0000
     8 N7A         31.9350    78.9380    38.2290 N.2          1 COA200   0.0000
     9 C8A         31.3370    80.0590    37.7390 C.2          1 COA200   0.0000
    10 N9A         30.3250    80.3970    38.6130 N.pl3        1 COA200   0.0000
    11 C1B         29.3230    81.4420    38.4320 C.3          1 COA200   0.0000
    12 C2B         29.9510    82.8250    38.4120 C.3          1 COA200   0.0000
    13 O2B         30.3160    83.2780    39.7110 O.3          1 COA200   0.0000
    14 C3B         28.8190    83.5680    37.7010 C.3          1 COA200   0.0000
    15 O3B         27.8460    83.9130    38.6550 O.3          1 COA200   0.0000
    16 P3B         27.0180    85.2810    38.5800 P.3          1 COA200   0.0000
    17 O7A         27.8940    86.4140    39.0220 O.co2        1 COA200   0.0000
    18 O8A         25.8460    85.2380    39.4730 O.co2        1 COA200  -1.0000
    19 O9A         26.7270    85.4450    37.1120 O.co2        1 COA200  -1.0000
    20 C4B         28.2420    82.5380    36.7270 C.3          1 COA200   0.0000
    21 O4B         28.7340    81.2810    37.1610 O.3          1 COA200   0.0000
    22 C5B         28.6730    82.7050    35.2800 C.3          1 COA200   0.0000
    23 O5B         30.0960    82.7730    35.2860 O.3          1 COA200   0.0000
    24 P1A         30.9160    83.8650    34.3880 P.3          1 COA200   0.0000
    25 O1A         32.2600    84.1060    35.0620 O.co2        1 COA200   0.0000
    26 O2A         30.1130    85.1510    34.1770 O.co2        1 COA200  -1.0000
    27 O3A         30.9980    83.1790    32.9390 O.3          1 COA200   0.0000
    28 P2A         31.8350    81.8530    32.5740 P.3          1 COA200   0.0000
    29 O4A         33.0940    81.7880    33.4280 O.co2        1 COA200   0.0000
    30 O5A         32.0310    81.8920    31.0670 O.co2        1 COA200  -1.0000
    31 O6A         30.8840    80.5700    32.9040 O.3          1 COA200   0.0000
    32 CBP         30.4350    78.4160    33.8250 C.3          1 COA200   0.0000
    33 CCP         30.9820    79.8150    34.0990 C.3          1 COA200   0.0000
    34 CDP         30.3190    77.6150    35.1370 C.3          1 COA200   0.0000
    35 CEP         29.0400    78.5920    33.1970 C.3          1 COA200   0.0000
    36 CAP         31.4010    77.7150    32.8330 C.3          1 COA200   0.0000
    37 OAP         32.6830    77.5260    33.4030 O.3          1 COA200   0.0000
    38 C9P         30.8720    76.4040    32.3340 C.2          1 COA200   0.0000
    39 O9P         30.0140    76.3200    31.2130 O.2          1 COA200   0.0000
    40 N8P         31.2450    75.3260    32.9960 N.am         1 COA200   0.0000
    41 C7P         30.6440    74.0660    32.6490 C.3          1 COA200   0.0000
    42 C6P         29.2180    73.8560    33.1480 C.3          1 COA200   0.0000
    43 C5P         28.6730    72.5520    32.5700 C.2          1 COA200   0.0000
    44 O5P         28.6660    72.3520    31.3280 O.2          1 COA200   0.0000
    45 N4P         28.2530    71.6330    33.4460 N.am         1 COA200   0.0000
    46 C3P         27.7100    70.3550    33.0490 C.3          1 COA200   0.0000
    47 C2P         28.6470    69.1690    33.2730 C.3          1 COA200   0.0000
    48 S1P         30.3260    69.3010    32.5050 S.3          1 COA200   0.0000
    49 H2A         29.0982    78.2427    42.4160 H            1 COA200   0.0000
    50 H6A1        33.1178    76.7252    39.2697 H            1 COA200   0.0000
    51 H6A2        32.6844    75.8976    40.7282 H            1 COA200   0.0000
    52 H8A         31.5853    80.5462    36.9017 H            1 COA200   0.0000
    53 H1B         28.6273    81.3855    39.1481 H            1 COA200   0.0000
    54 H2B         30.7605    82.8134    37.8250 H            1 COA200   0.0000
    55 H7          30.7231    84.1889    39.6442 H            1 COA200   0.0000
    56 H3B         29.1592    84.3753    37.2187 H            1 COA200   0.0000
    57 H4B         27.2436    82.5454    36.7830 H            1 COA200   0.0000
    58 H5B1        28.2887    83.5465    34.9002 H            1 COA200   0.0000
    59 H5B2        28.3669    81.9236    34.7362 H            1 COA200   0.0000
    60 HCP1        30.4461    80.2527    34.8210 H            1 COA200   0.0000
    61 HCP2        31.9386    79.7547    34.3839 H            1 COA200   0.0000
    62 HDP1        29.9599    76.7028    34.9400 H            1 COA200   0.0000
    63 HDP2        31.2220    77.5338    35.5589 H            1 COA200   0.0000
    64 HDP3        29.6999    78.0889    35.7632 H            1 COA200   0.0000
    65 HEP1        28.6465    77.6936    33.0019 H            1 COA200   0.0000
    66 HEP2        28.4472    79.0843    33.8344 H            1 COA200   0.0000
    67 HEP3        29.1204    79.1124    32.3469 H            1 COA200   0.0000
    68 HAP         31.5090    78.3169    32.0418 H            1 COA200   0.0000
    69 H21         33.2792    77.0734    32.7399 H            1 COA200   0.0000
    70 H8P         31.9298    75.3833    33.7224 H            1 COA200   0.0000
    71 H7P1        31.2137    73.3380    33.0304 H            1 COA200   0.0000
    72 H7P2        30.6346    73.9940    31.6516 H            1 COA200   0.0000
    73 H6P1        28.6438    74.6193    32.8518 H            1 COA200   0.0000
    74 H6P2        29.2167    73.8059    34.1467 H            1 COA200   0.0000
    75 H4P         28.3180    71.8405    34.4221 H            1 COA200   0.0000
    76 H3P1        27.4896    70.3988    32.0746 H            1 COA200   0.0000
    77 H3P2        26.8735    70.1951    33.5731 H            1 COA200   0.0000
    78 H2P1        28.2034    68.3544    32.8994 H            1 COA200   0.0000
    79 H2P2        28.7700    69.0589    34.2593 H            1 COA200   0.0000
    80 H1P         30.5973    70.2624    32.4599 H            1 COA200   0.0000
@<TRIPOS>BOND
     1    1    2      ar
     2    1    6      ar
     3    2    3      ar
     4    3    4      ar
     5    4    5      ar
     6    4   10       1
     7    5    6      ar
     8    5    8       1
     9    6    7       1
    10    8    9       2
    11    9   10       1
    12   10   11       1
    13   11   12       1
    14   11   21       1
    15   12   13       1
    16   12   14       1
    17   14   15       1
    18   14   20       1
    19   15   16       1
    20   16   17      ar
    21   16   18      ar
    22   16   19      ar
    23   20   21       1
    24   20   22       1
    25   22   23       1
    26   23   24       1
    27   24   25      ar
    28   24   26      ar
    29   24   27       1
    30   27   28       1
    31   28   29      ar
    32   28   30      ar
    33   28   31       1
    34   31   33       1
    35   32   33       1
    36   32   34       1
    37   32   35       1
    38   32   36       1
    39   36   37       1
    40   36   38       1
    41   38   39       2
    42   38   40      am
    43   40   41       1
    44   41   42       1
    45   42   43       1
    46   43   44       2
    47   43   45      am
    48   45   46       1
    49   46   47       1
    50   47   48       1
    51    2   49       1
    52    7   50       1
    53    7   51       1
    54    9   52       1
    55   11   53       1
    56   12   54       1
    57   13   55       1
    58   14   56       1
    59   48   80       1
    60   47   79       1
    61   20   57       1
    62   22   58       1
    63   22   59       1
    64   47   78       1
    65   46   77       1
    66   33   60       1
    67   33   61       1
    68   34   62       1
    69   34   63       1
    70   34   64       1
    71   35   65       1
    72   35   66       1
    73   35   67       1
    74   36   68       1
    75   37   69       1
    76   40   70       1
    77   41   71       1
    78   41   72       1
    79   42   73       1
    80   42   74       1
    81   45   75       1
    82   46   76       1
@<TRIPOS>SUBSTRUCTURE
     1 COA200      1 GROUP             4 C     COA     0 **** COA C 200
