@<TRIPOS>MOLECULE
4rxp_DTP_1_ligand
   42    44     1     0     0
SMALL
NO_CHARGES


@<TRIPOS>ATOM
     1 PG          35.1760    33.3120    25.9690 P.3          1 DTP701   0.0000
     2 O1G         35.7880    34.1930    24.9020 O.co2        1 DTP701   0.0000
     3 O2G         35.7620    31.9270    26.0890 O.co2        1 DTP701  -1.0000
     4 O3G         33.6670    33.2260    25.8900 O.co2        1 DTP701  -1.0000
     5 PB          36.9030    34.5420    27.9800 P.3          1 DTP701   0.0000
     6 O1B         36.8870    34.4050    29.4790 O.co2        1 DTP701   0.0000
     7 O2B         37.2800    35.8820    27.3840 O.co2        1 DTP701  -1.0000
     8 O3B         35.4590    34.0550    27.3960 O.3          1 DTP701   0.0000
     9 PA          38.9900    33.6010    26.2410 P.3          1 DTP701   0.0000
    10 O1A         38.3420    34.1520    24.9920 O.co2        1 DTP701   0.0000
    11 O2A         40.2030    34.3110    26.8070 O.co2        1 DTP701  -1.0000
    12 O3A         37.9240    33.4190    27.4400 O.3          1 DTP701   0.0000
    13 O5'         39.3790    32.0550    25.9710 O.3          1 DTP701   0.0000
    14 C5'         38.4060    31.0390    25.7070 C.3          1 DTP701   0.0000
    15 C4'         39.0830    29.7820    25.1720 C.3          1 DTP701   0.0000
    16 O4'         39.5020    30.0300    23.8340 O.3          1 DTP701   0.0000
    17 C3'         40.3450    29.3980    25.9320 C.3          1 DTP701   0.0000
    18 O3'         40.5450    27.9670    25.9070 O.3          1 DTP701   0.0000
    19 C2'         41.4610    30.0980    25.1790 C.3          1 DTP701   0.0000
    20 C1'         40.9330    30.0850    23.7620 C.3          1 DTP701   0.0000
    21 N9          41.3600    31.2480    22.9570 N.pl3        1 DTP701   0.0000
    22 C8          40.8270    32.4890    22.9340 C.2          1 DTP701   0.0000
    23 N7          41.4740    33.2740    22.0260 N.2          1 DTP701   0.0000
    24 C5          42.4220    32.5160    21.4520 C.ar         1 DTP701   0.0000
    25 C6          43.4520    32.6880    20.4140 C.ar         1 DTP701   0.0000
    26 N6          43.5880    33.8950    19.8180 N.pl3        1 DTP701   0.0000
    27 N1          44.2610    31.6360    20.1020 N.ar         1 DTP701   0.0000
    28 C2          44.1240    30.4310    20.6990 C.ar         1 DTP701   0.0000
    29 N3          43.1900    30.2100    21.6540 N.ar         1 DTP701   0.0000
    30 C4          42.3320    31.1790    22.0520 C.ar         1 DTP701   0.0000
    31 H5'1        37.7533    31.3760    25.0285 H            1 DTP701   0.0000
    32 H5'2        37.9223    30.8179    26.5538 H            1 DTP701   0.0000
    33 H4'         38.4363    29.0194    25.1863 H            1 DTP701   0.0000
    34 H3'         40.2991    29.7280    26.8749 H            1 DTP701   0.0000
    35 H5          41.3777    27.7380    26.4111 H            1 DTP701   0.0000
    36 H2'1        42.3215    29.5937    25.2516 H            1 DTP701   0.0000
    37 H2'2        41.5933    31.0324    25.5098 H            1 DTP701   0.0000
    38 H1'         41.2583    29.2534    23.3119 H            1 DTP701   0.0000
    39 H9          40.0630    32.7905    23.5044 H            1 DTP701   0.0000
    40 H10         44.2828    34.0282    19.1112 H            1 DTP701   0.0000
    41 H11         42.9938    34.6539    20.0843 H            1 DTP701   0.0000
    42 H12         44.7290    29.6823    20.4279 H            1 DTP701   0.0000
@<TRIPOS>BOND
     1    1    2      ar
     2    1    3      ar
     3    1    4      ar
     4    1    8       1
     5    5    6      ar
     6    5    7      ar
     7    5    8       1
     8    5   12       1
     9    9   10      ar
    10    9   11      ar
    11    9   12       1
    12    9   13       1
    13   13   14       1
    14   14   15       1
    15   15   16       1
    16   15   17       1
    17   16   20       1
    18   17   18       1
    19   17   19       1
    20   19   20       1
    21   20   21       1
    22   21   22       1
    23   21   30       1
    24   22   23       2
    25   23   24       1
    26   24   25      ar
    27   24   30      ar
    28   25   26       1
    29   25   27      ar
    30   27   28      ar
    31   28   29      ar
    32   29   30      ar
    33   28   42       1
    34   26   41       1
    35   26   40       1
    36   22   39       1
    37   14   31       1
    38   14   32       1
    39   15   33       1
    40   17   34       1
    41   18   35       1
    42   19   36       1
    43   19   37       1
    44   20   38       1
@<TRIPOS>SUBSTRUCTURE
     1 DTP701      1 GROUP             4 A     DTP     0 **** DTP A 701
