@<TRIPOS>MOLECULE
4y9l_FAD_1_ligand
   84    89     1     0     0
SMALL
NO_CHARGES


@<TRIPOS>ATOM
     1 PA         -35.2640    -5.9290    22.3870 P.3          1 FAD701   0.0000
     2 O1A        -34.2590    -5.3860    21.3350 O.co2        1 FAD701   0.0000
     3 O2A        -36.2160    -5.0510    23.2140 O.co2        1 FAD701  -1.0000
     4 O5B        -36.2330    -6.8950    21.5320 O.3          1 FAD701   0.0000
     5 C5B        -35.6140    -7.7710    20.5880 C.3          1 FAD701   0.0000
     6 C4B        -36.6690    -8.1510    19.5920 C.3          1 FAD701   0.0000
     7 O4B        -36.9790    -6.9200    18.9160 O.3          1 FAD701   0.0000
     8 C3B        -36.1750    -9.1370    18.5570 C.3          1 FAD701   0.0000
     9 O3B        -37.2400    -9.9190    18.0520 O.3          1 FAD701   0.0000
    10 C2B        -35.6650    -8.2390    17.4480 C.3          1 FAD701   0.0000
    11 O2B        -35.6650    -8.8430    16.1640 O.3          1 FAD701   0.0000
    12 C1B        -36.6990    -7.1280    17.5200 C.3          1 FAD701   0.0000
    13 N9A        -36.2150    -5.9120    16.8450 N.pl3        1 FAD701   0.0000
    14 C8A        -35.4430    -4.9690    17.4470 C.2          1 FAD701   0.0000
    15 N7A        -35.1820    -3.9830    16.5440 N.2          1 FAD701   0.0000
    16 C5A        -35.7930    -4.3020    15.3650 C.ar         1 FAD701   0.0000
    17 C6A        -35.9020    -3.6590    14.0290 C.ar         1 FAD701   0.0000
    18 N6A        -35.2480    -2.4640    13.8680 N.pl3        1 FAD701   0.0000
    19 N1A        -36.6320    -4.3020    13.0560 N.ar         1 FAD701   0.0000
    20 C2A        -37.2300    -5.4930    13.3090 C.ar         1 FAD701   0.0000
    21 N3A        -37.1720    -6.1400    14.4990 N.ar         1 FAD701   0.0000
    22 C4A        -36.4840    -5.5930    15.5500 C.ar         1 FAD701   0.0000
    23 N1         -25.6000    -6.8000    27.1240 N.2          1 FAD701   0.0000
    24 C2         -24.5290    -6.1090    27.5250 C.2          1 FAD701   0.0000
    25 O2         -24.3970    -4.9350    27.0530 O.2          1 FAD701   0.0000
    26 N3         -23.6290    -6.6450    28.3830 N.pl3        1 FAD701   0.0000
    27 C4         -23.7230    -7.8750    28.9060 C.2          1 FAD701   0.0000
    28 O4         -22.8840    -8.3280    29.7160 O.2          1 FAD701   0.0000
    29 C4X        -24.8990    -8.6680    28.5180 C.2          1 FAD701   0.0000
    30 N5         -25.1290    -9.9210    28.9750 N.2          1 FAD701   0.0000
    31 C5X        -26.2140   -10.5840    28.5370 C.ar         1 FAD701   0.0000
    32 C6         -26.4040   -11.8590    29.0330 C.ar         1 FAD701   0.0000
    33 C7         -27.4840   -12.6260    28.6370 C.ar         1 FAD701   0.0000
    34 C7M        -27.5850   -14.0040    29.2100 C.3          1 FAD701   0.0000
    35 C8         -28.4660   -12.0770    27.6890 C.ar         1 FAD701   0.0000
    36 C8M        -29.6440   -12.9020    27.2760 C.3          1 FAD701   0.0000
    37 C9         -28.2970   -10.7740    27.1800 C.ar         1 FAD701   0.0000
    38 C9A        -27.1970   -10.0130    27.5680 C.ar         1 FAD701   0.0000
    39 N10        -26.9480    -8.7260    27.0830 N.pl3        1 FAD701   0.0000
    40 C10        -25.8260    -8.0330    27.5600 C.2          1 FAD701   0.0000
    41 C1'        -27.8360    -7.9570    26.1810 C.3          1 FAD701   0.0000
    42 C2'        -28.2800    -8.5330    24.8420 C.3          1 FAD701   0.0000
    43 O2'        -27.4110    -8.0970    23.7910 O.3          1 FAD701   0.0000
    44 C3'        -29.7050    -8.0380    24.6140 C.3          1 FAD701   0.0000
    45 O3'        -30.6600    -8.8180    25.3700 O.3          1 FAD701   0.0000
    46 C4'        -30.0070    -7.9330    23.1150 C.3          1 FAD701   0.0000
    47 O4'        -29.8200    -6.5290    22.7890 O.3          1 FAD701   0.0000
    48 C5'        -31.4110    -8.3960    22.7110 C.3          1 FAD701   0.0000
    49 O5'        -32.2510    -7.2240    22.7550 O.3          1 FAD701   0.0000
    50 P          -33.0390    -6.7490    24.0900 P.3          1 FAD701   0.0000
    51 O1P        -32.7630    -7.7490    25.1970 O.co2        1 FAD701   0.0000
    52 O2P        -32.8490    -5.2770    24.3970 O.co2        1 FAD701  -1.0000
    53 O3P        -34.5350    -6.9220    23.4740 O.3          1 FAD701   0.0000
    54 H5B1       -35.2681    -8.5870    21.0511 H            1 FAD701   0.0000
    55 H5B2       -34.8591    -7.3034    20.1282 H            1 FAD701   0.0000
    56 H4B        -37.4784    -8.5083    20.0580 H            1 FAD701   0.0000
    57 H3B        -35.4439    -9.7125    18.9235 H            1 FAD701   0.0000
    58 H5         -38.0865    -9.3874    18.0805 H            1 FAD701   0.0000
    59 H2B        -34.7557    -7.8875    17.6708 H            1 FAD701   0.0000
    60 H7         -34.7887    -9.2997    16.0105 H            1 FAD701   0.0000
    61 H1B        -37.5351    -7.4367    17.0666 H            1 FAD701   0.0000
    62 H8A        -35.1209    -4.9947    18.3934 H            1 FAD701   0.0000
    63 H6A1       -35.2871    -1.9869    12.9900 H            1 FAD701   0.0000
    64 H6A2       -34.7321    -2.0699    14.6286 H            1 FAD701   0.0000
    65 H2A        -37.7478    -5.9221    12.5689 H            1 FAD701   0.0000
    66 H13        -22.8420    -6.0858    28.6436 H            1 FAD701   0.0000
    67 H14        -25.7494   -12.2337    29.6896 H            1 FAD701   0.0000
    68 H7M1       -28.4017   -14.4554    28.8505 H            1 FAD701   0.0000
    69 H7M2       -26.7739   -14.5309    28.9561 H            1 FAD701   0.0000
    70 H7M3       -27.6470   -13.9469    30.2064 H            1 FAD701   0.0000
    71 H8M1       -30.2061   -12.3820    26.6329 H            1 FAD701   0.0000
    72 H8M2       -29.3252   -13.7418    26.8366 H            1 FAD701   0.0000
    73 H8M3       -30.1880   -13.1336    28.0825 H            1 FAD701   0.0000
    74 H21        -28.9665   -10.3959    26.5406 H            1 FAD701   0.0000
    75 H1'1       -27.3631    -7.0993    25.9792 H            1 FAD701   0.0000
    76 H1'2       -28.6697    -7.7643    26.6985 H            1 FAD701   0.0000
    77 H2'        -28.2753    -9.5319    24.8884 H            1 FAD701   0.0000
    78 H25        -27.7580    -7.2425    23.4045 H            1 FAD701   0.0000
    79 H3'        -29.7450    -7.1076    24.9784 H            1 FAD701   0.0000
    80 H27        -31.5824    -8.4709    25.2006 H            1 FAD701   0.0000
    81 H4'        -29.3324    -8.4732    22.6119 H            1 FAD701   0.0000
    82 H29        -30.0022    -6.3855    21.8163 H            1 FAD701   0.0000
    83 H5'1       -31.7459    -9.0865    23.3521 H            1 FAD701   0.0000
    84 H5'2       -31.3973    -8.7779    21.7869 H            1 FAD701   0.0000
@<TRIPOS>BOND
     1    1    2      ar
     2    1    3      ar
     3    1    4       1
     4    1   53       1
     5    4    5       1
     6    5    6       1
     7    6    7       1
     8    6    8       1
     9    7   12       1
    10    8    9       1
    11    8   10       1
    12   10   11       1
    13   10   12       1
    14   12   13       1
    15   13   14       1
    16   13   22       1
    17   14   15       2
    18   15   16       1
    19   16   17      ar
    20   16   22      ar
    21   17   18       1
    22   17   19      ar
    23   19   20      ar
    24   20   21      ar
    25   21   22      ar
    26   23   24       1
    27   23   40       2
    28   24   25       2
    29   24   26       1
    30   26   27       1
    31   27   28       2
    32   27   29       1
    33   29   30       2
    34   29   40       1
    35   30   31       1
    36   31   32      ar
    37   31   38      ar
    38   32   33      ar
    39   33   34       1
    40   33   35      ar
    41   35   36       1
    42   35   37      ar
    43   37   38      ar
    44   38   39       1
    45   39   40       1
    46   39   41       1
    47   41   42       1
    48   42   43       1
    49   42   44       1
    50   44   45       1
    51   44   46       1
    52   46   47       1
    53   46   48       1
    54   48   49       1
    55   49   50       1
    56   50   51      ar
    57   50   52      ar
    58   50   53       1
    59   48   84       1
    60    5   54       1
    61    5   55       1
    62    6   56       1
    63    8   57       1
    64    9   58       1
    65   10   59       1
    66   11   60       1
    67   12   61       1
    68   14   62       1
    69   18   63       1
    70   18   64       1
    71   20   65       1
    72   26   66       1
    73   32   67       1
    74   34   68       1
    75   34   69       1
    76   34   70       1
    77   36   71       1
    78   36   72       1
    79   36   73       1
    80   37   74       1
    81   41   75       1
    82   41   76       1
    83   42   77       1
    84   43   78       1
    85   44   79       1
    86   45   80       1
    87   46   81       1
    88   47   82       1
    89   48   83       1
@<TRIPOS>SUBSTRUCTURE
     1 FAD701      1 GROUP             4 A     FAD     0 **** FAD A 701
