@<TRIPOS>MOLECULE
3ewr_APR_1_ligand
   57    60     1     0     0
SMALL
NO_CHARGES


@<TRIPOS>ATOM
     1 N1          14.0690    -3.2840     9.6370 N.ar         1 APR169   0.0000
     2 C2          13.0580    -2.3800     9.7450 C.ar         1 APR169   0.0000
     3 N3          12.2910    -2.2380    10.8510 N.ar         1 APR169   0.0000
     4 C4          12.5050    -3.0070    11.9650 C.ar         1 APR169   0.0000
     5 C5          13.5800    -4.0280    11.9150 C.ar         1 APR169   0.0000
     6 C6          14.3710    -4.1330    10.6570 C.ar         1 APR169   0.0000
     7 N6          15.3770    -5.0440    10.5600 N.pl3        1 APR169   0.0000
     8 N7          13.6130    -4.6550    13.1140 N.2          1 APR169   0.0000
     9 C8          12.6370    -4.1280    13.8720 C.2          1 APR169   0.0000
    10 N9          11.9670    -3.1580    13.1900 N.pl3        1 APR169   0.0000
    11 C1'         10.8720    -2.4780    13.9300 C.3          1 APR169   0.0000
    12 C2'          9.4400    -2.9050    13.6550 C.3          1 APR169   0.0000
    13 O2'          9.0490    -4.2650    13.9610 O.3          1 APR169   0.0000
    14 C3'          8.7410    -1.9110    14.5480 C.3          1 APR169   0.0000
    15 O3'          7.6680    -1.4900    13.7210 O.3          1 APR169   0.0000
    16 O4'         10.9000    -1.0470    14.0270 O.3          1 APR169   0.0000
    17 C4'          9.7100    -0.7310    14.7530 C.3          1 APR169   0.0000
    18 C5'         10.0030    -0.4150    16.2290 C.3          1 APR169   0.0000
    19 O5'         10.5770    -1.5580    16.9060 O.3          1 APR169   0.0000
    20 PA          11.9070    -1.5680    17.8310 P.3          1 APR169   0.0000
    21 O1A         13.1710    -1.3730    17.0060 O.co2        1 APR169   0.0000
    22 O2A         11.8930    -2.8360    18.6570 O.co2        1 APR169  -1.0000
    23 O3A         11.8100    -0.2480    18.7710 O.3          1 APR169   0.0000
    24 PB          11.0740     0.0750    20.1890 P.3          1 APR169   0.0000
    25 O1B         10.9460     1.5870    20.1880 O.co2        1 APR169   0.0000
    26 O2B          9.9250    -0.8660    20.3560 O.co2        1 APR169  -1.0000
    27 O5D         12.1870    -0.3330    21.2380 O.3          1 APR169   0.0000
    28 C5D         13.4360     0.4040    21.2310 C.3          1 APR169   0.0000
    29 O4D         14.9220    -1.4850    20.8060 O.3          1 APR169   0.0000
    30 O1D         17.0890    -2.2490    20.6980 O.3          1 APR169   0.0000
    31 C1D         16.2120    -1.2180    20.2280 C.3          1 APR169   0.0000
    32 O2D         18.0650     0.2780    20.8970 O.3          1 APR169   0.0000
    33 C2D         16.6470     0.1770    20.7100 C.3          1 APR169   0.0000
    34 O3D         16.4820    -0.1990    23.1420 O.3          1 APR169   0.0000
    35 C3D         15.8410     0.3940    21.9930 C.3          1 APR169   0.0000
    36 C4D         14.5870    -0.4450    21.7490 C.3          1 APR169   0.0000
    37 H1          12.8709    -1.7864     8.9623 H            1 APR169   0.0000
    38 H2          15.5746    -5.6543    11.3272 H            1 APR169   0.0000
    39 H3          15.9187    -5.1033     9.7215 H            1 APR169   0.0000
    40 H4          12.4306    -4.4095    14.8091 H            1 APR169   0.0000
    41 H1'         11.0193    -2.7724    14.8743 H            1 APR169   0.0000
    42 H2'          9.2149    -2.7051    12.7014 H            1 APR169   0.0000
    43 H7           8.3257    -4.5531    13.3335 H            1 APR169   0.0000
    44 H3'          8.4320    -2.3136    15.4096 H            1 APR169   0.0000
    45 H9           6.8769    -2.0822    13.8741 H            1 APR169   0.0000
    46 H4'          9.3006     0.0814    14.3378 H            1 APR169   0.0000
    47 H5'1         9.1492    -0.1616    16.6838 H            1 APR169   0.0000
    48 H5'2        10.6460     0.3493    16.2773 H            1 APR169   0.0000
    49 H5D1        13.3401     1.2114    21.8131 H            1 APR169   0.0000
    50 H5D2        13.6391     0.6903    20.2946 H            1 APR169   0.0000
    51 H1D         16.5651    -3.0861    20.8556 H            1 APR169   0.0000
    52 H16         16.1560    -1.2384    19.2298 H            1 APR169   0.0000
    53 H2D         18.5299    -0.3370    20.2601 H            1 APR169   0.0000
    54 H18         16.3624     0.8551    20.0323 H            1 APR169   0.0000
    55 H3D         17.0081    -0.9992    22.8542 H            1 APR169   0.0000
    56 H20         15.6239     1.3589    22.1409 H            1 APR169   0.0000
    57 H4D         14.3110    -0.8694    22.6114 H            1 APR169   0.0000
@<TRIPOS>BOND
     1    1    2      ar
     2    1    6      ar
     3    2    3      ar
     4    3    4      ar
     5    4    5      ar
     6    4   10       1
     7    5    6      ar
     8    5    8       1
     9    6    7       1
    10    8    9       2
    11    9   10       1
    12   10   11       1
    13   11   12       1
    14   11   16       1
    15   12   13       1
    16   12   14       1
    17   14   15       1
    18   14   17       1
    19   16   17       1
    20   17   18       1
    21   18   19       1
    22   19   20       1
    23   20   21      ar
    24   20   22      ar
    25   20   23       1
    26   23   24       1
    27   24   25      ar
    28   24   26      ar
    29   24   27       1
    30   27   28       1
    31   28   36       1
    32   29   31       1
    33   29   36       1
    34   30   31       1
    35   31   33       1
    36   32   33       1
    37   33   35       1
    38   34   35       1
    39   35   36       1
    40    2   37       1
    41    7   38       1
    42    7   39       1
    43    9   40       1
    44   11   41       1
    45   12   42       1
    46   13   43       1
    47   14   44       1
    48   15   45       1
    49   17   46       1
    50   18   47       1
    51   18   48       1
    52   36   57       1
    53   35   56       1
    54   28   49       1
    55   28   50       1
    56   30   51       1
    57   31   52       1
    58   32   53       1
    59   33   54       1
    60   34   55       1
@<TRIPOS>SUBSTRUCTURE
     1 APR169      1 GROUP             4 A     APR     0 **** APR A 169
