@<TRIPOS>MOLECULE
2hdk_COI_1_ligand
   18    17     1     0     0
SMALL
NO_CHARGES


@<TRIPOS>ATOM
     1 C1          18.0190     8.0910    21.0680 C.2          1 COI900   0.0000
     2 O1          17.6500     8.6080    22.1600 O.co2        1 COI900   0.0000
     3 O2          18.9230     8.6400    20.4290 O.co2        1 COI900  -1.0000
     4 C2          17.4450     6.6940    20.5530 C.2          1 COI900   0.0000
     5 O3          18.1080     5.9970    19.6910 O.2          1 COI900   0.0000
     6 C3          16.0860     6.2050    21.0600 C.3          1 COI900   0.0000
     7 C4          15.9230     4.6690    21.0630 C.3          1 COI900   0.0000
     8 C5          15.4140     4.2280    22.4250 C.3          1 COI900   0.0000
     9 C6          14.9400     4.2450    19.9610 C.3          1 COI900   0.0000
    10 H1          15.3749     6.5941    20.4744 H            1 COI900   0.0000
    11 H2          15.9641     6.5346    21.9962 H            1 COI900   0.0000
    12 H3          16.8118     4.2442    20.8913 H            1 COI900   0.0000
    13 H4          15.3059     3.2339    22.4346 H            1 COI900   0.0000
    14 H5          16.0699     4.4988    23.1296 H            1 COI900   0.0000
    15 H6          14.5312     4.6611    22.6072 H            1 COI900   0.0000
    16 H7          14.8394     3.2501    19.9688 H            1 COI900   0.0000
    17 H8          14.0505     4.6713    20.1257 H            1 COI900   0.0000
    18 H9          15.2903     4.5377    19.0712 H            1 COI900   0.0000
@<TRIPOS>BOND
     1    1    2      ar
     2    1    3      ar
     3    1    4       1
     4    4    5       2
     5    4    6       1
     6    6    7       1
     7    7    8       1
     8    7    9       1
     9    9   18       1
    10    6   10       1
    11    6   11       1
    12    7   12       1
    13    8   13       1
    14    8   14       1
    15    8   15       1
    16    9   16       1
    17    9   17       1
@<TRIPOS>SUBSTRUCTURE
     1 COI900      1 GROUP             4 B     COI     0 **** COI B 900
