@<TRIPOS>MOLECULE
4lrh_FOL_4_ligand
   49    51     1     0     0
SMALL
NO_CHARGES


@<TRIPOS>ATOM
     1 N1           8.7150     4.7340    70.9590 N.pl3        1 FOL301   0.0000
     2 C2           8.9780     4.1080    72.1590 C.2          1 FOL301   0.0000
     3 NA2          8.1350     4.3220    73.2210 N.pl3        1 FOL301   0.0000
     4 N3          10.0290     3.2970    72.3220 N.2          1 FOL301   0.0000
     5 C4          10.9100     3.0300    71.3050 C.2          1 FOL301   0.0000
     6 O4          11.8610     2.2860    71.4770 O.2          1 FOL301   0.0000
     7 C4A         10.6880     3.6630    69.9790 C.ar         1 FOL301   0.0000
     8 N5          11.4980     3.4420    68.9180 N.ar         1 FOL301   0.0000
     9 C6          11.2530     4.0330    67.7360 C.ar         1 FOL301   0.0000
    10 C7          10.1350     4.9020    67.5970 C.ar         1 FOL301   0.0000
    11 N8           9.3190     5.1280    68.6520 N.ar         1 FOL301   0.0000
    12 C8A          9.5490     4.5320    69.8450 C.ar         1 FOL301   0.0000
    13 C9          12.1580     3.7630    66.5570 C.3          1 FOL301   0.0000
    14 N10         11.6050     2.6750    65.7150 N.pl3        1 FOL301   0.0000
    15 C11         14.1980     0.3540    63.2870 C.ar         1 FOL301   0.0000
    16 C12         13.0810    -0.2290    63.9540 C.ar         1 FOL301   0.0000
    17 C13         12.2410     0.5530    64.7480 C.ar         1 FOL301   0.0000
    18 C14         12.4810     1.9280    64.9090 C.ar         1 FOL301   0.0000
    19 C15         13.5950     2.5270    64.2480 C.ar         1 FOL301   0.0000
    20 C16         14.4490     1.7510    63.4420 C.ar         1 FOL301   0.0000
    21 C           15.0850    -0.4940    62.4460 C.2          1 FOL301   0.0000
    22 O           15.8540     0.0250    61.6520 O.2          1 FOL301   0.0000
    23 N           15.0220    -1.8540    62.5680 N.am         1 FOL301   0.0000
    24 CA          16.0190    -2.6720    61.8370 C.3          1 FOL301   0.0000
    25 CB          17.3980    -2.7590    62.5800 C.3          1 FOL301   0.0000
    26 CG          17.2640    -2.7340    64.1260 C.3          1 FOL301   0.0000
    27 CD          18.6240    -2.8090    64.8110 C.2          1 FOL301   0.0000
    28 OE1         19.6480    -2.8770    64.1700 O.co2        1 FOL301   0.0000
    29 OE2         18.6900    -2.8000    66.1500 O.co2        1 FOL301  -1.0000
    30 CT          15.4260    -4.0550    61.5970 C.2          1 FOL301   0.0000
    31 O1          15.9400    -5.0550    62.0510 O.co2        1 FOL301   0.0000
    32 O2          14.3060    -4.1690    60.8750 O.co2        1 FOL301  -1.0000
    33 HA21         8.3122     3.8753    74.0979 H            1 FOL301   0.0000
    34 HA22         7.3437     4.9246    73.1177 H            1 FOL301   0.0000
    35 H3           9.9525     5.3456    66.7196 H            1 FOL301   0.0000
    36 H4          13.0614     3.4938    66.8907 H            1 FOL301   0.0000
    37 H5          12.2397     4.5947    66.0078 H            1 FOL301   0.0000
    38 H6          10.6250     2.4761    65.7206 H            1 FOL301   0.0000
    39 H7          12.8978    -1.2068    63.8520 H            1 FOL301   0.0000
    40 H8          11.4598     0.1302    65.2073 H            1 FOL301   0.0000
    41 H9          13.7702     3.5053    64.3583 H            1 FOL301   0.0000
    42 H10         15.2276     2.1760    62.9803 H            1 FOL301   0.0000
    43 H11         14.3213    -2.2860    63.1358 H            1 FOL301   0.0000
    44 HA          16.1750    -2.2447    60.9465 H            1 FOL301   0.0000
    45 HB1         17.9605    -1.9820    62.2974 H            1 FOL301   0.0000
    46 HB2         17.8488    -3.6111    62.3141 H            1 FOL301   0.0000
    47 HG1         16.7115    -3.5154    64.4161 H            1 FOL301   0.0000
    48 HG2         16.8103    -1.8855    64.3983 H            1 FOL301   0.0000
    49 H17          7.9223     5.3384    70.8800 H            1 FOL301   0.0000
@<TRIPOS>BOND
     1    1    2       1
     2    1   12       1
     3    2    3       1
     4    2    4       2
     5    4    5       1
     6    5    6       2
     7    5    7       1
     8    7    8      ar
     9    7   12      ar
    10    8    9      ar
    11    9   10      ar
    12    9   13       1
    13   10   11      ar
    14   11   12      ar
    15   13   14       1
    16   14   18       1
    17   15   16      ar
    18   15   20      ar
    19   15   21       1
    20   16   17      ar
    21   17   18      ar
    22   18   19      ar
    23   19   20      ar
    24   21   22       2
    25   21   23      am
    26   23   24       1
    27   24   25       1
    28   24   30       1
    29   25   26       1
    30   26   27       1
    31   27   28      ar
    32   27   29      ar
    33   30   31      ar
    34   30   32      ar
    35    1   49       1
    36    3   33       1
    37    3   34       1
    38   10   35       1
    39   13   36       1
    40   13   37       1
    41   14   38       1
    42   16   39       1
    43   17   40       1
    44   19   41       1
    45   20   42       1
    46   23   43       1
    47   24   44       1
    48   25   45       1
    49   25   46       1
    50   26   47       1
    51   26   48       1
@<TRIPOS>SUBSTRUCTURE
     1 FOL301      1 GROUP             4 D     FOL     0 **** FOL D 301
