@<TRIPOS>MOLECULE
4m99_ACO_3_ligand
   85    87     1     0     0
SMALL
NO_CHARGES


@<TRIPOS>ATOM
     1 N1A        -10.6330     4.7030    -6.8050 N.ar         1 ACO501   0.0000
     2 C2A        -10.7090     5.0170    -5.4960 C.ar         1 ACO501   0.0000
     3 N3A        -11.1890     4.1800    -4.5560 N.ar         1 ACO501   0.0000
     4 C4A        -11.6330     2.9450    -4.8950 C.ar         1 ACO501   0.0000
     5 C5A        -11.5860     2.5290    -6.3040 C.ar         1 ACO501   0.0000
     6 C6A        -11.0400     3.5020    -7.2840 C.ar         1 ACO501   0.0000
     7 N6A        -10.9540     3.1900    -8.6050 N.pl3        1 ACO501   0.0000
     8 N7A        -12.0760     1.2760    -6.3570 N.2          1 ACO501   0.0000
     9 C8A        -12.4130     0.9190    -5.0950 C.2          1 ACO501   0.0000
    10 N9A        -12.1510     1.9170    -4.2300 N.pl3        1 ACO501   0.0000
    11 C1B        -12.3930     1.8720    -2.7720 C.3          1 ACO501   0.0000
    12 C2B        -13.8760     1.6570    -2.5190 C.3          1 ACO501   0.0000
    13 O2B        -14.5840     2.8910    -2.3770 O.3          1 ACO501   0.0000
    14 C3B        -13.8750     0.8380    -1.2490 C.3          1 ACO501   0.0000
    15 O3B        -13.6510     1.7210    -0.1530 O.3          1 ACO501   0.0000
    16 P3B        -14.3830     1.6170     1.2870 P.3          1 ACO501   0.0000
    17 O7A        -15.6580     0.8330     1.0460 O.co2        1 ACO501   0.0000
    18 O8A        -13.3620     0.8750     2.1240 O.co2        1 ACO501  -1.0000
    19 O9A        -14.5750     3.0820     1.6210 O.co2        1 ACO501  -1.0000
    20 C4B        -12.6090     0.0060    -1.3610 C.3          1 ACO501   0.0000
    21 O4B        -11.7240     0.7320    -2.2160 O.3          1 ACO501   0.0000
    22 C5B        -12.8500    -1.4050    -1.8910 C.3          1 ACO501   0.0000
    23 O5B        -13.4670    -1.3680    -3.1750 O.3          1 ACO501   0.0000
    24 P1A        -14.1130    -2.7050    -3.7930 P.3          1 ACO501   0.0000
    25 O1A        -15.5410    -2.4050    -4.1860 O.co2        1 ACO501   0.0000
    26 O2A        -13.7980    -3.8540    -2.8630 O.co2        1 ACO501  -1.0000
    27 O3A        -13.2410    -2.9240    -5.1350 O.3          1 ACO501   0.0000
    28 P2A        -12.1650    -4.1270    -5.2330 P.3          1 ACO501   0.0000
    29 O4A        -11.2850    -4.0760    -4.0030 O.co2        1 ACO501   0.0000
    30 O5A        -12.9120    -5.3770    -5.6460 O.co2        1 ACO501  -1.0000
    31 O6A        -11.2490    -3.6680    -6.4680 O.3          1 ACO501   0.0000
    32 CBP        -10.2700    -1.9740    -7.8560 C.3          1 ACO501   0.0000
    33 CCP        -10.6930    -2.3610    -6.4520 C.3          1 ACO501   0.0000
    34 CDP         -9.7230    -3.1800    -8.6040 C.3          1 ACO501   0.0000
    35 CEP         -9.1950    -0.9030    -7.7220 C.3          1 ACO501   0.0000
    36 CAP        -11.5170    -1.4760    -8.6060 C.3          1 ACO501   0.0000
    37 OAP        -12.4380    -0.8290    -7.7130 O.3          1 ACO501   0.0000
    38 C9P        -11.1870    -0.5920    -9.7900 C.2          1 ACO501   0.0000
    39 O9P        -11.1180     0.6290    -9.6750 O.2          1 ACO501   0.0000
    40 N8P        -10.9980    -1.2420   -10.9450 N.am         1 ACO501   0.0000
    41 C7P        -10.7830    -0.5840   -12.2220 C.3          1 ACO501   0.0000
    42 C6P        -11.5610    -1.2700   -13.3440 C.3          1 ACO501   0.0000
    43 C5P        -11.3470    -0.5740   -14.6760 C.2          1 ACO501   0.0000
    44 O5P        -10.4950     0.2880   -14.8070 O.2          1 ACO501   0.0000
    45 N4P        -12.1160    -0.9640   -15.6860 N.am         1 ACO501   0.0000
    46 C3P        -11.5160    -1.4660   -16.9080 C.3          1 ACO501   0.0000
    47 C2P        -12.5980    -1.9380   -17.8590 C.3          1 ACO501   0.0000
    48 S1P        -12.0610    -1.9160   -19.5410 S.3          1 ACO501   0.0000
    49 C          -13.5570    -1.4450   -20.1110 C.2          1 ACO501   0.0000
    50 O          -14.3760    -1.0880   -19.2710 O.2          1 ACO501   0.0000
    51 CH3        -13.8760    -1.4650   -21.5810 C.3          1 ACO501   0.0000
    52 H2A        -10.3918     5.9203    -5.2073 H            1 ACO501   0.0000
    53 H6A1       -11.2624     2.2955    -8.9286 H            1 ACO501   0.0000
    54 H6A2       -10.5823     3.8551    -9.2527 H            1 ACO501   0.0000
    55 H8A        -12.8034     0.0343    -4.8401 H            1 ACO501   0.0000
    56 H1B        -12.0782     2.7146    -2.3351 H            1 ACO501   0.0000
    57 H2B        -14.2728     1.1231    -3.2657 H            1 ACO501   0.0000
    58 H7         -15.2898     2.9535    -3.0827 H            1 ACO501   0.0000
    59 H3B        -14.6996     0.2826    -1.1413 H            1 ACO501   0.0000
    60 H4B        -12.1916    -0.0616    -0.4548 H            1 ACO501   0.0000
    61 H5B1       -13.4459    -1.8960    -1.2555 H            1 ACO501   0.0000
    62 H5B2       -11.9739    -1.8819    -1.9625 H            1 ACO501   0.0000
    63 HCP1        -9.8965    -2.3450    -5.8476 H            1 ACO501   0.0000
    64 HCP2       -11.3770    -1.7119    -6.1192 H            1 ACO501   0.0000
    65 HDP1        -9.4501    -2.9048    -9.5258 H            1 ACO501   0.0000
    66 HDP2        -8.9294    -3.5432    -8.1159 H            1 ACO501   0.0000
    67 HDP3       -10.4299    -3.8849    -8.6621 H            1 ACO501   0.0000
    68 HEP1        -8.8898    -0.6214    -8.6317 H            1 ACO501   0.0000
    69 HEP2        -9.5701    -0.1131    -7.2369 H            1 ACO501   0.0000
    70 HEP3        -8.4194    -1.2715    -7.2095 H            1 ACO501   0.0000
    71 HAP        -11.9815    -2.2846    -8.9672 H            1 ACO501   0.0000
    72 H21        -11.9904    -0.0448    -7.2833 H            1 ACO501   0.0000
    73 H8P        -11.0053    -2.2418   -10.9275 H            1 ACO501   0.0000
    74 H7P1        -9.8075    -0.6095   -12.4404 H            1 ACO501   0.0000
    75 H7P2       -11.0842     0.3670   -12.1522 H            1 ACO501   0.0000
    76 H6P1       -12.5357    -1.2526   -13.1212 H            1 ACO501   0.0000
    77 H6P2       -11.2533    -2.2185   -13.4199 H            1 ACO501   0.0000
    78 H4P        -13.1113    -0.9116   -15.6041 H            1 ACO501   0.0000
    79 H3P1       -10.9099    -2.2308   -16.6897 H            1 ACO501   0.0000
    80 H3P2       -10.9884    -0.7360   -17.3424 H            1 ACO501   0.0000
    81 H2P1       -13.3926    -1.3380   -17.7665 H            1 ACO501   0.0000
    82 H2P2       -12.8560    -2.8729   -17.6152 H            1 ACO501   0.0000
    83 HH31       -14.8145    -1.1502   -21.7227 H            1 ACO501   0.0000
    84 HH32       -13.2448    -0.8608   -22.0673 H            1 ACO501   0.0000
    85 HH33       -13.7808    -2.3972   -21.9301 H            1 ACO501   0.0000
@<TRIPOS>BOND
     1    1    2      ar
     2    1    6      ar
     3    2    3      ar
     4    3    4      ar
     5    4    5      ar
     6    4   10       1
     7    5    6      ar
     8    5    8       1
     9    6    7       1
    10    8    9       2
    11    9   10       1
    12   10   11       1
    13   11   12       1
    14   11   21       1
    15   12   13       1
    16   12   14       1
    17   14   15       1
    18   14   20       1
    19   15   16       1
    20   16   17      ar
    21   16   18      ar
    22   16   19      ar
    23   20   21       1
    24   20   22       1
    25   22   23       1
    26   23   24       1
    27   24   25      ar
    28   24   26      ar
    29   24   27       1
    30   27   28       1
    31   28   29      ar
    32   28   30      ar
    33   28   31       1
    34   31   33       1
    35   32   33       1
    36   32   34       1
    37   32   35       1
    38   32   36       1
    39   36   37       1
    40   36   38       1
    41   38   39       2
    42   38   40      am
    43   40   41       1
    44   41   42       1
    45   42   43       1
    46   43   44       2
    47   43   45      am
    48   45   46       1
    49   46   47       1
    50   47   48       1
    51   48   49       1
    52   49   50       2
    53   49   51       1
    54    2   52       1
    55    7   53       1
    56    7   54       1
    57    9   55       1
    58   11   56       1
    59   12   57       1
    60   13   58       1
    61   14   59       1
    62   51   85       1
    63   51   84       1
    64   20   60       1
    65   22   61       1
    66   22   62       1
    67   51   83       1
    68   47   82       1
    69   33   63       1
    70   33   64       1
    71   34   65       1
    72   34   66       1
    73   34   67       1
    74   35   68       1
    75   35   69       1
    76   35   70       1
    77   36   71       1
    78   37   72       1
    79   40   73       1
    80   41   74       1
    81   41   75       1
    82   42   76       1
    83   42   77       1
    84   45   78       1
    85   46   79       1
    86   46   80       1
    87   47   81       1
@<TRIPOS>SUBSTRUCTURE
     1 ACO501      1 GROUP             4 C     ACO     0 **** ACO C 501
