@<TRIPOS>MOLECULE
3av7_KYA_4_ligand
   20    21     1     0     0
SMALL
NO_CHARGES


@<TRIPOS>ATOM
     1 N          -21.5690     6.3270    -5.9390 N.pl3        1 KYA431   0.0000
     2 C1         -22.6440     7.9690    -7.3030 C.ar         1 KYA431   0.0000
     3 O1         -21.1040     9.1940    -8.7110 O.2          1 KYA431   0.0000
     4 C2         -22.6960     6.9300    -6.2990 C.ar         1 KYA431   0.0000
     5 O2         -19.2740     4.9430    -5.1820 O.co2        1 KYA431   0.0000
     6 C3         -21.3180     8.2770    -7.8300 C.2          1 KYA431   0.0000
     7 O3         -18.0200     6.2980    -6.3160 O.co2        1 KYA431  -1.0000
     8 C4         -23.8040     8.5910    -7.6880 C.ar         1 KYA431   0.0000
     9 C5         -23.9120     6.5810    -5.7460 C.ar         1 KYA431   0.0000
    10 C6         -20.2350     7.5960    -7.3760 C.2          1 KYA431   0.0000
    11 C7         -20.3610     6.6180    -6.4320 C.2          1 KYA431   0.0000
    12 C8         -25.0120     8.2150    -7.1100 C.ar         1 KYA431   0.0000
    13 C9         -25.0710     7.2270    -6.1580 C.ar         1 KYA431   0.0000
    14 C10        -19.1370     5.9050    -5.9490 C.2          1 KYA431   0.0000
    15 H1         -21.6281     5.6042    -5.2505 H            1 KYA431   0.0000
    16 H2         -23.7815     9.3115    -8.3811 H            1 KYA431   0.0000
    17 H3         -23.9585     5.8644    -5.0500 H            1 KYA431   0.0000
    18 H4         -19.3293     7.8145    -7.7393 H            1 KYA431   0.0000
    19 H5         -25.8544     8.6733    -7.3934 H            1 KYA431   0.0000
    20 H6         -25.9519     6.9714    -5.7596 H            1 KYA431   0.0000
@<TRIPOS>BOND
     1    1    4       1
     2    1   11       1
     3    2    4      ar
     4    2    6       1
     5    2    8      ar
     6    3    6       2
     7    4    9      ar
     8    5   14      ar
     9    6   10       1
    10    7   14      ar
    11    8   12      ar
    12    9   13      ar
    13   10   11       2
    14   11   14       1
    15   12   13      ar
    16    1   15       1
    17   13   20       1
    18    8   16       1
    19    9   17       1
    20   10   18       1
    21   12   19       1
@<TRIPOS>SUBSTRUCTURE
     1 KYA431      1 GROUP             4 C     KYA     0 **** KYA C 431
