@<TRIPOS>MOLECULE
./coach420/1u72/ligand.pdb
 80 85 0 0 0
SMALL
GASTEIGER

@<TRIPOS>ATOM
      1  PA        26.9180    8.7020    8.6090 P.3   187  NDP187      0.2189
      2  O1A       27.5110    9.9250    7.9860 O.2   187  NDP187     -0.5170
      3  O2A       25.5610    8.2080    8.3050 O.3   187  NDP187     -0.4371
      4  O5B       27.1630    8.7770   10.2500 O.3   187  NDP187     -0.3112
      5  C5B       26.3690    7.8500   11.0620 C.3   187  NDP187      0.1813
      6  C4B       26.0920    8.6420   12.3850 C.3   187  NDP187      0.1800
      7  O4B       25.1240    9.3630   12.1540 O.3   187  NDP187     -0.3307
      8  C3B       25.5370    7.4630   13.3760 C.3   187  NDP187      0.2134
      9  O3B       26.7870    7.1840   14.1830 O.3   187  NDP187     -0.2176
     10  C2B       24.5130    8.3200   14.0980 C.3   187  NDP187      0.2081
     11  O2B       25.0360    9.2650   14.9740 O.3   187  NDP187     -0.2654
     12  C1B       23.9390    9.2030   12.9730 C.3   187  NDP187      0.2382
     13  N9A       22.7820    8.7350   12.2450 N.ar  187  NDP187     -0.2694
     14  C8A       22.9030    8.2070   11.0180 C.ar  187  NDP187      0.1816
     15  N7A       21.7550    7.8910   10.5350 N.ar  187  NDP187     -0.2193
     16  C5A       20.8420    8.3060   11.5480 C.ar  187  NDP187      0.1518
     17  C6A       19.2900    8.2660   11.6910 C.ar  187  NDP187      0.1919
     18  N6A       18.5220    7.7640   10.7080 N.pl3 187  NDP187     -0.1054
     19  N1A       18.7570    8.7300   12.8750 N.ar  187  NDP187     -0.2040
     20  C2A       19.6450    9.1790   13.7550 C.ar  187  NDP187      0.2016
     21  N3A       20.9660    9.2670   13.7080 N.ar  187  NDP187     -0.2048
     22  C4A       21.5100    8.7780   12.5520 C.ar  187  NDP187      0.1692
     23  O3        28.0480    7.6920    8.2620 O.3   187  NDP187     -0.2703
     24  PN        28.4090    6.4290    7.3970 P.3   187  NDP187      0.2189
     25  O1N       27.2710    5.7770    6.8860 O.2   187  NDP187     -0.5170
     26  O2N       29.0980    5.5300    8.3410 O.3   187  NDP187     -0.4371
     27  O5D       29.5030    6.9810    6.3880 O.3   187  NDP187     -0.3112
     28  C5D       29.9020    8.1760    5.7650 C.3   187  NDP187      0.1813
     29  C4D       31.2050    7.7150    5.1260 C.3   187  NDP187      0.1799
     30  O4D       31.0960    7.6140    3.6500 O.3   187  NDP187     -0.3327
     31  C3D       32.5080    8.5750    5.1570 C.3   187  NDP187      0.2158
     32  O3D       33.4870    7.6090    4.6490 O.3   187  NDP187     -0.2175
     33  C2D       32.0880    9.6930    4.1410 C.3   187  NDP187      0.2309
     34  O2D       33.2120   10.3690    3.6730 O.3   187  NDP187     -0.2158
     35  C1D       31.5170    8.8740    3.0020 C.3   187  NDP187      0.2263
     36  N1N       30.3120    9.3560    2.1780 N.pl3 187  NDP187     -0.2787
     37  C2N       30.2550    9.1630    0.7660 C.3   187  NDP187      0.1244
     38  C3N       29.2050    9.6130    0.0500 C.2   187  NDP187      0.0544
     39  C7N       29.2250    9.3840   -1.4180 C.2   187  NDP187      0.2818
     40  O7N       28.2170    9.7660   -1.9600 O.2   187  NDP187     -0.2670
     41  N7N       30.2190    8.7730   -2.0800 N.am  187  NDP187     -0.0839
     42  C4N       27.9600   10.2510    0.6840 C.2   187  NDP187      0.0033
     43  C5N       28.1650   10.3580    2.1740 C.2   187  NDP187      0.0157
     44  C6N       29.2290    9.9370    2.8490 C.2   187  NDP187      0.0633
     45  P2B       25.1610    8.9940   16.6560 P.3   187  NDP187      0.5327
     46  O1X       23.7750    8.6440   17.0730 O.3   187  NDP187     -0.1145
     47  O2X       25.4230   10.3920   17.0470 O.3   187  NDP187     -0.1145
     48  O3X       26.1200    7.9020   16.6280 O.2   187  NDP187     -0.2224
     49  C2        27.4470   12.7490   -4.4770 C.2   188  MTX188      0.3460
     50  NA2       27.0080   12.5890   -5.6950 N.2   188  MTX188     -0.0955
     51  N3        26.5500   12.6420   -3.5030 N.pl3 188  MTX188      0.0269
     52  C4        26.9350   12.7650   -2.2560 C.2   188  MTX188      0.4387
     53  NA4       25.9920   12.6900   -1.3830 N.2   188  MTX188      0.1994
     54  C4A       28.3250   13.0470   -1.9270 C.ar  188  MTX188      0.1909
     55  N5        28.7520   13.2140   -0.6730 N.ar  188  MTX188     -0.2373
     56  C6        30.0250   13.4360   -0.4740 C.ar  188  MTX188      0.0983
     57  C7        30.9330   13.5080   -1.5180 C.ar  188  MTX188      0.1153
     58  N8        30.5500   13.3390   -2.7870 N.ar  188  MTX188     -0.2392
     59  C8A       29.2410   13.1190   -2.9870 C.ar  188  MTX188      0.1258
     60  C9        30.4210   13.5990    0.9930 C.3   188  MTX188      0.1388
     61  N10       31.7050   14.2510    1.1010 N.pl3 188  MTX188     -0.3006
     62  CM        32.7240   13.6150    1.9250 C.3   188  MTX188      0.1125
     63  C11       32.1390   18.3040    0.0490 C.ar  188  MTX188      0.0551
     64  C12       30.9100   17.6820   -0.0120 C.ar  188  MTX188      0.0058
     65  C13       30.7670   16.3730    0.3060 C.ar  188  MTX188      0.0147
     66  C14       31.8420   15.5990    0.7500 C.ar  188  MTX188      0.0482
     67  C15       33.0880   16.2370    0.7950 C.ar  188  MTX188      0.0147
     68  C16       33.2360   17.5590    0.4680 C.ar  188  MTX188      0.0058
     69  C         32.2790   19.7460   -0.3000 C.2   188  MTX188      0.2652
     70  O         33.2540   20.2960    0.2540 O.2   188  MTX188     -0.2684
     71  N         31.3400   20.2890   -1.0690 N.am  188  MTX188     -0.1918
     72  CA        31.2370   21.6120   -1.6760 C.3   188  MTX188      0.1986
     73  CT        29.9170   22.3420   -1.5180 C.2   188  MTX188      0.3842
     74  O1        30.0190   23.6170   -1.5170 O.co2 188  MTX188     -0.2437
     75  O2        28.9410   21.5740   -1.4230 O.co2 188  MTX188     -0.2437
     76  CB        31.6130   21.4920   -3.1550 C.3   188  MTX188      0.0451
     77  CG        33.0050   22.0870   -3.1610 C.3   188  MTX188      0.1164
     78  CD        33.6830   21.6570   -4.3770 C.2   188  MTX188      0.3649
     79  OE1       34.7260   20.8850   -4.5630 O.co2 188  MTX188     -0.2457
     80  OE2       33.1150   22.0400   -5.5070 O.co2 188  MTX188     -0.2457
@<TRIPOS>BOND
     1     1     2    2
     2     1    23    1
     3     1     3    1
     4     1     4    1
     5     4     5    1
     6     5     6    1
     7     6     7    1
     8     6     8    1
     9     7    12    1
    10     8    10    1
    11     8     9    1
    12    10    12    1
    13    10    11    1
    14    11    45    1
    15    12    13    1
    16    13    14   ar
    17    13    22   ar
    18    14    15   ar
    19    15    16   ar
    20    16    17   ar
    21    16    22   ar
    22    17    18    1
    23    17    19   ar
    24    19    20   ar
    25    20    21   ar
    26    21    22   ar
    27    23    24    1
    28    24    27    1
    29    24    25    2
    30    24    26    1
    31    27    28    1
    32    28    29    1
    33    29    30    1
    34    29    31    1
    35    30    35    1
    36    31    33    1
    37    31    32    1
    38    33    35    1
    39    33    34    1
    40    35    36    1
    41    36    37    1
    42    36    44    1
    43    37    38    1
    44    38    39    1
    45    38    42    2
    46    39    41   am
    47    39    40    2
    48    42    43    1
    49    43    44    2
    50    45    48    2
    51    45    47    1
    52    45    46    1
    53    49    50    2
    54    49    51    1
    55    51    52    1
    56    52    54    1
    57    52    53    2
    58    54    59   ar
    59    54    55   ar
    60    55    56   ar
    61    56    57   ar
    62    56    60    1
    63    57    58   ar
    64    58    59   ar
    65    60    61    1
    66    61    66    1
    67    61    62    1
    68    63    69    1
    69    63    64   ar
    70    63    68   ar
    71    64    65   ar
    72    65    66   ar
    73    66    67   ar
    74    67    68   ar
    75    69    71   am
    76    69    70    2
    77    71    72    1
    78    72    76    1
    79    72    73    1
    80    73    74   ar
    81    73    75   ar
    82    76    77    1
    83    77    78    1
    84    78    80   ar
    85    78    79   ar
