@<TRIPOS>MOLECULE
3w8z_HTK_1_ligand
   34    34     1     0     0
SMALL
NO_CHARGES


@<TRIPOS>ATOM
     1 C1          -1.9040    11.1340    34.4820 C.ar         1 HTK601   0.0000
     2 C2          -2.8400    10.1210    34.3330 C.ar         1 HTK601   0.0000
     3 C3          -2.7770     8.9990    35.1400 C.ar         1 HTK601   0.0000
     4 C4          -1.7850     8.8820    36.0940 C.ar         1 HTK601   0.0000
     5 C5          -0.8430     9.8830    36.2370 C.ar         1 HTK601   0.0000
     6 C6          -0.9010    11.0120    35.4350 C.ar         1 HTK601   0.0000
     7 C7           0.1290    12.0750    35.6340 C.2          1 HTK601   0.0000
     8 O7           1.2980    11.7600    35.6400 O.2          1 HTK601   0.0000
     9 C8          -0.2380    13.4950    35.9010 C.3          1 HTK601   0.0000
    10 C9           0.1580    14.5820    34.9660 C.2          1 HTK601   0.0000
    11 O9          -0.5760    14.8730    34.0360 O.2          1 HTK601   0.0000
    12 C10          1.4270    15.3400    35.1880 C.3          1 HTK601   0.0000
    13 C11          1.7010    16.4500    34.2310 C.2          1 HTK601   0.0000
    14 O11          1.5250    16.2600    33.0360 O.2          1 HTK601   0.0000
    15 C12          2.1490    17.7800    34.7480 C.3          1 HTK601   0.0000
    16 C13          1.8790    18.9960    33.9220 C.3          1 HTK601   0.0000
    17 O13          2.4540    20.0990    34.5170 O.3          1 HTK601   0.0000
    18 C14          2.4300    18.8340    32.5470 C.3          1 HTK601   0.0000
    19 H1          -1.9513    11.9495    33.9051 H            1 HTK601   0.0000
    20 H2          -3.5594    10.2017    33.6431 H            1 HTK601   0.0000
    21 H3          -3.4525     8.2696    35.0322 H            1 HTK601   0.0000
    22 H4          -1.7485     8.0732    36.6810 H            1 HTK601   0.0000
    23 H5          -0.1184     9.7927    36.9202 H            1 HTK601   0.0000
    24 H6           0.1571    13.7276    36.7897 H            1 HTK601   0.0000
    25 H7          -1.2357    13.5232    35.9622 H            1 HTK601   0.0000
    26 H8           2.1854    14.6909    35.1290 H            1 HTK601   0.0000
    27 H9           1.3932    15.7305    36.1080 H            1 HTK601   0.0000
    28 H10          3.1389    17.7269    34.8798 H            1 HTK601   0.0000
    29 H11          1.7020    17.9186    35.6317 H            1 HTK601   0.0000
    30 H12          0.8907    19.1363    33.8623 H            1 HTK601   0.0000
    31 H13          2.0660    20.2255    35.4299 H            1 HTK601   0.0000
    32 H14          2.2388    19.6571    32.0122 H            1 HTK601   0.0000
    33 H15          3.4185    18.6921    32.5986 H            1 HTK601   0.0000
    34 H16          2.0024    18.0441    32.1075 H            1 HTK601   0.0000
@<TRIPOS>BOND
     1    1    2      ar
     2    1    6      ar
     3    2    3      ar
     4    3    4      ar
     5    4    5      ar
     6    5    6      ar
     7    6    7       1
     8    7    8       2
     9    7    9       1
    10    9   10       1
    11   10   11       2
    12   10   12       1
    13   12   13       1
    14   13   14       2
    15   13   15       1
    16   15   16       1
    17   16   17       1
    18   16   18       1
    19    1   19       1
    20    2   20       1
    21    3   21       1
    22    4   22       1
    23    5   23       1
    24    9   24       1
    25    9   25       1
    26   12   26       1
    27   12   27       1
    28   15   28       1
    29   15   29       1
    30   16   30       1
    31   17   31       1
    32   18   32       1
    33   18   33       1
    34   18   34       1
@<TRIPOS>SUBSTRUCTURE
     1 HTK601      1 GROUP             4 A     HTK     0 **** HTK A 601
