@<TRIPOS>MOLECULE
3dzd_ADP_2_ligand
   39    41     1     0     0
SMALL
NO_CHARGES


@<TRIPOS>ATOM
     1 PB         -33.8400     3.9630    33.7900 P.3          1 ADP370   0.0000
     2 O1B        -32.3480     3.7320    33.9380 O.co2        1 ADP370   0.0000
     3 O2B        -34.6890     3.4090    34.9160 O.co2        1 ADP370  -1.0000
     4 O3B        -34.2490     5.3300    33.3340 O.co2        1 ADP370  -1.0000
     5 PA         -33.2500     2.1420    31.7110 P.3          1 ADP370   0.0000
     6 O1A        -32.0130     2.9280    31.2900 O.co2        1 ADP370   0.0000
     7 O2A        -33.0860     0.9300    32.5850 O.co2        1 ADP370  -1.0000
     8 O3A        -34.2620     3.1210    32.4840 O.3          1 ADP370   0.0000
     9 O5'        -34.1930     1.7960    30.4410 O.3          1 ADP370   0.0000
    10 C5'        -35.0370     0.6380    30.4190 C.3          1 ADP370   0.0000
    11 C4'        -34.8180    -0.1670    29.1360 C.3          1 ADP370   0.0000
    12 O4'        -35.1750     0.6080    27.9910 O.3          1 ADP370   0.0000
    13 C3'        -33.3520    -0.5240    28.9840 C.3          1 ADP370   0.0000
    14 O3'        -33.2400    -1.8800    28.5400 O.3          1 ADP370   0.0000
    15 C2'        -32.8300     0.4140    27.9110 C.3          1 ADP370   0.0000
    16 O2'        -31.7880    -0.1940    27.1300 O.3          1 ADP370   0.0000
    17 C1'        -34.0690     0.7340    27.0880 C.3          1 ADP370   0.0000
    18 N9         -34.0760     2.1280    26.5820 N.pl3        1 ADP370   0.0000
    19 C8         -34.3750     3.2010    27.3370 C.2          1 ADP370   0.0000
    20 N7         -34.3320     4.3390    26.6150 N.2          1 ADP370   0.0000
    21 C5         -34.0050     4.0030    25.3510 C.ar         1 ADP370   0.0000
    22 C6         -33.7840     4.7480    24.0890 C.ar         1 ADP370   0.0000
    23 N6         -33.9280     6.1050    24.0370 N.pl3        1 ADP370   0.0000
    24 N1         -33.4540     4.0210    22.9940 N.ar         1 ADP370   0.0000
    25 C2         -33.3180     2.6790    23.0440 C.ar         1 ADP370   0.0000
    26 N3         -33.5010     1.9460    24.1620 N.ar         1 ADP370   0.0000
    27 C4         -33.8380     2.5430    25.3320 C.ar         1 ADP370   0.0000
    28 H5'1       -35.9930     0.9277    30.4656 H            1 ADP370   0.0000
    29 H5'2       -34.8244     0.0619    31.2083 H            1 ADP370   0.0000
    30 H4'        -35.3677    -1.0019    29.1633 H            1 ADP370   0.0000
    31 H3'        -32.8612    -0.3891    29.8448 H            1 ADP370   0.0000
    32 H5         -32.3892    -2.2750    28.8865 H            1 ADP370   0.0000
    33 H2'        -32.4850     1.2507    28.3364 H            1 ADP370   0.0000
    34 H7         -31.0254    -0.4424    27.7274 H            1 ADP370   0.0000
    35 H1'        -34.1614     0.0875    26.3307 H            1 ADP370   0.0000
    36 H9         -34.6005     3.1597    28.3104 H            1 ADP370   0.0000
    37 H10        -33.7749     6.5915    23.1768 H            1 ADP370   0.0000
    38 H11        -34.1865     6.6122    24.8591 H            1 ADP370   0.0000
    39 H12        -33.0668     2.1998    22.2030 H            1 ADP370   0.0000
@<TRIPOS>BOND
     1    1    2      ar
     2    1    3      ar
     3    1    4      ar
     4    1    8       1
     5    5    6      ar
     6    5    7      ar
     7    5    8       1
     8    5    9       1
     9    9   10       1
    10   10   11       1
    11   11   12       1
    12   11   13       1
    13   12   17       1
    14   13   14       1
    15   13   15       1
    16   15   16       1
    17   15   17       1
    18   17   18       1
    19   18   19       1
    20   18   27       1
    21   19   20       2
    22   20   21       1
    23   21   22      ar
    24   21   27      ar
    25   22   23       1
    26   22   24      ar
    27   24   25      ar
    28   25   26      ar
    29   26   27      ar
    30   25   39       1
    31   23   38       1
    32   23   37       1
    33   10   28       1
    34   10   29       1
    35   11   30       1
    36   13   31       1
    37   14   32       1
    38   15   33       1
    39   16   34       1
    40   17   35       1
    41   19   36       1
@<TRIPOS>SUBSTRUCTURE
     1 ADP370      1 GROUP             4 B     ADP     0 **** ADP B 370
