@<TRIPOS>MOLECULE
3q8u_ADP_3_ligand
   39    41     1     0     0
SMALL
NO_CHARGES


@<TRIPOS>ATOM
     1 PB           5.3350    53.7110   -42.7800 P.3          1 ADP158   0.0000
     2 O1B          5.7220    54.4610   -41.5150 O.co2        1 ADP158   0.0000
     3 O2B          5.6530    52.2190   -42.7980 O.co2        1 ADP158  -1.0000
     4 O3B          3.9840    54.1180   -43.3270 O.co2        1 ADP158  -1.0000
     5 PA           6.4520    54.0640   -45.4180 P.3          1 ADP158   0.0000
     6 O1A          7.4940    55.0470   -45.8980 O.co2        1 ADP158   0.0000
     7 O2A          5.0120    54.0690   -45.9260 O.co2        1 ADP158  -1.0000
     8 O3A          6.4600    54.2880   -43.8000 O.3          1 ADP158   0.0000
     9 O5'          6.8260    52.5120   -45.5670 O.3          1 ADP158   0.0000
    10 C5'          8.1600    52.1000   -45.5950 C.3          1 ADP158   0.0000
    11 C4'          8.3190    50.9610   -44.6220 C.3          1 ADP158   0.0000
    12 O4'          9.4680    50.3380   -45.1650 O.3          1 ADP158   0.0000
    13 C3'          8.6630    51.4580   -43.2110 C.3          1 ADP158   0.0000
    14 O3'          7.6420    51.1940   -42.2210 O.3          1 ADP158   0.0000
    15 C2'          9.9530    50.7510   -42.8950 C.3          1 ADP158   0.0000
    16 O2'          9.7200    49.5150   -42.2040 O.3          1 ADP158   0.0000
    17 C1'         10.5490    50.4410   -44.2670 C.3          1 ADP158   0.0000
    18 N9          11.4550    51.5540   -44.6230 N.pl3        1 ADP158   0.0000
    19 C8          11.1200    52.7990   -44.9890 C.2          1 ADP158   0.0000
    20 N7          12.2230    53.5460   -45.1870 N.2          1 ADP158   0.0000
    21 C5          13.2880    52.7740   -44.9440 C.ar         1 ADP158   0.0000
    22 C6          14.7550    52.9570   -44.9950 C.ar         1 ADP158   0.0000
    23 N6          15.2670    54.1670   -45.3440 N.pl3        1 ADP158   0.0000
    24 N1          15.5290    51.8880   -44.6820 N.ar         1 ADP158   0.0000
    25 C2          14.9960    50.6910   -44.3320 C.ar         1 ADP158   0.0000
    26 N3          13.6620    50.4490   -44.2840 N.ar         1 ADP158   0.0000
    27 C4          12.7830    51.4480   -44.5760 C.ar         1 ADP158   0.0000
    28 H5'1         8.7546    52.8586   -45.3288 H            1 ADP158   0.0000
    29 H5'2         8.4012    51.7949   -46.5163 H            1 ADP158   0.0000
    30 H4'          7.5256    50.3523   -44.6230 H            1 ADP158   0.0000
    31 H3'          8.8332    52.4428   -43.2466 H            1 ADP158   0.0000
    32 H5           7.0039    51.9632   -42.1870 H            1 ADP158   0.0000
    33 H2'         10.5629    51.3431   -42.3682 H            1 ADP158   0.0000
    34 H7          10.1703    49.5420   -41.3115 H            1 ADP158   0.0000
    35 H1'         11.0558    49.5795   -44.2366 H            1 ADP158   0.0000
    36 H9          10.1820    53.1274   -45.0996 H            1 ADP158   0.0000
    37 H10         16.2576    54.2990   -45.3809 H            1 ADP158   0.0000
    38 H11         14.6531    54.9251   -45.5639 H            1 ADP158   0.0000
    39 H12         15.6204    49.9462   -44.0965 H            1 ADP158   0.0000
@<TRIPOS>BOND
     1    1    2      ar
     2    1    3      ar
     3    1    4      ar
     4    1    8       1
     5    5    6      ar
     6    5    7      ar
     7    5    8       1
     8    5    9       1
     9    9   10       1
    10   10   11       1
    11   11   12       1
    12   11   13       1
    13   12   17       1
    14   13   14       1
    15   13   15       1
    16   15   16       1
    17   15   17       1
    18   17   18       1
    19   18   19       1
    20   18   27       1
    21   19   20       2
    22   20   21       1
    23   21   22      ar
    24   21   27      ar
    25   22   23       1
    26   22   24      ar
    27   24   25      ar
    28   25   26      ar
    29   26   27      ar
    30   25   39       1
    31   23   38       1
    32   23   37       1
    33   10   28       1
    34   10   29       1
    35   11   30       1
    36   13   31       1
    37   14   32       1
    38   15   33       1
    39   16   34       1
    40   17   35       1
    41   19   36       1
@<TRIPOS>SUBSTRUCTURE
     1 ADP158      1 GROUP             4 C     ADP     0 **** ADP C 158
