@<TRIPOS>MOLECULE
4xt4_NAP_1_ligand
   42    44     1     0     0
SMALL
NO_CHARGES


@<TRIPOS>ATOM
     1 PA          20.7130    15.5830    14.4030 P.3          1 NAP301   0.0000
     2 O1A         21.5480    16.0190    13.2500 O.co2        1 NAP301   0.0000
     3 O2A         19.5790    16.5560    14.6110 O.co2        1 NAP301  -1.0000
     4 O5B         20.1890    14.1520    14.1770 O.3          1 NAP301   0.0000
     5 C5B         20.6170    13.3840    13.1300 C.3          1 NAP301   0.0000
     6 C4B         19.5250    12.6500    12.3880 C.3          1 NAP301   0.0000
     7 O4B         18.6680    13.5730    11.6200 O.3          1 NAP301   0.0000
     8 C3B         20.0050    11.6150    11.4300 C.3          1 NAP301   0.0000
     9 O3B         20.0500    10.3530    11.9660 O.3          1 NAP301   0.0000
    10 C2B         19.0050    11.6490    10.3770 C.3          1 NAP301   0.0000
    11 O2B         17.8510    10.9600    10.7010 O.3          1 NAP301   0.0000
    12 C1B         18.7060    13.1320    10.3110 C.3          1 NAP301   0.0000
    13 N9A         19.6300    13.8590     9.4300 N.pl3        1 NAP301   0.0000
    14 C8A         20.6130    14.7270     9.7370 C.2          1 NAP301   0.0000
    15 N7A         21.1850    15.1330     8.5850 N.2          1 NAP301   0.0000
    16 C5A         20.5700    14.5240     7.5500 C.ar         1 NAP301   0.0000
    17 C6A         20.6980    14.5340     6.1670 C.ar         1 NAP301   0.0000
    18 N6A         21.6960    15.3460     5.4770 N.pl3        1 NAP301   0.0000
    19 N1A         19.8730    13.7690     5.4350 N.ar         1 NAP301   0.0000
    20 C2A         18.9210    12.9880     5.9890 C.ar         1 NAP301   0.0000
    21 N3A         18.7790    12.9650     7.3180 N.ar         1 NAP301   0.0000
    22 C4A         19.5820    13.7170     8.1000 C.ar         1 NAP301   0.0000
    23 O3          21.5620    15.5750    15.7150 O.3          1 NAP301   0.0000
    24 PN          22.5080    14.4470    16.2020 P.3          1 NAP301   0.0000
    25 O1N         23.6920    14.3130    15.3010 O.co2        1 NAP301   0.0000
    26 O2N         22.9590    14.8330    17.6570 O.co2        1 NAP301  -1.0000
    27 O5D         21.7950    13.1220    16.2790 O.co2        1 NAP301  -1.0000
    28 P2B         17.5660     9.4580    10.4010 P.3          1 NAP301   0.0000
    29 O1X         17.7650     9.1470     8.9530 O.co2        1 NAP301   0.0000
    30 O2X         16.1160     9.1980    10.7750 O.co2        1 NAP301  -1.0000
    31 O3X         18.4580     8.6010    11.2460 O.co2        1 NAP301  -1.0000
    32 H5B1        21.2603    12.7059    13.4854 H            1 NAP301   0.0000
    33 H5B2        21.0870    13.9806    12.4795 H            1 NAP301   0.0000
    34 H4B         18.9495    12.1935    13.0665 H            1 NAP301   0.0000
    35 H3B         20.9009    11.8689    11.0655 H            1 NAP301   0.0000
    36 H5          19.4516     9.7468    11.4422 H            1 NAP301   0.0000
    37 H2B         19.3855    11.3222     9.5119 H            1 NAP301   0.0000
    38 H1B         17.7863    13.2361     9.9325 H            1 NAP301   0.0000
    39 H8A         20.8731    15.0191    10.6573 H            1 NAP301   0.0000
    40 H6A1        21.7550    15.3244     4.4790 H            1 NAP301   0.0000
    41 H6A2        22.3206    15.9238     6.0024 H            1 NAP301   0.0000
    42 H2A         18.3265    12.4308     5.4093 H            1 NAP301   0.0000
@<TRIPOS>BOND
     1    1    2      ar
     2    1    3      ar
     3    1    4       1
     4    1   23       1
     5    4    5       1
     6    5    6       1
     7    6    7       1
     8    6    8       1
     9    7   12       1
    10    8    9       1
    11    8   10       1
    12   10   11       1
    13   10   12       1
    14   11   28       1
    15   12   13       1
    16   13   14       1
    17   13   22       1
    18   14   15       2
    19   15   16       1
    20   16   17      ar
    21   16   22      ar
    22   17   18       1
    23   17   19      ar
    24   19   20      ar
    25   20   21      ar
    26   21   22      ar
    27   23   24       1
    28   24   25      ar
    29   24   26      ar
    30   24   27      ar
    31   28   29      ar
    32   28   30      ar
    33   28   31      ar
    34   20   42       1
    35    5   32       1
    36    5   33       1
    37    6   34       1
    38    8   35       1
    39    9   36       1
    40   10   37       1
    41   12   38       1
    42   14   39       1
    43   18   40       1
    44   18   41       1
@<TRIPOS>SUBSTRUCTURE
     1 NAP301      1 GROUP             4 A     NAP     0 **** NAP A 301
