@<TRIPOS>MOLECULE
2yyy_NAP_2_ligand
   73    77     1     0     0
SMALL
NO_CHARGES


@<TRIPOS>ATOM
     1 PA          30.5120    -2.8480    16.7670 P.3          1 NAP1001   0.0000
     2 O1A         31.5100    -3.3100    17.7510 O.co2        1 NAP1001   0.0000
     3 O2A         30.7990    -1.5560    16.0560 O.co2        1 NAP1001  -1.0000
     4 O5B         30.3270    -4.0480    15.7110 O.3          1 NAP1001   0.0000
     5 C5B         29.3480    -3.9940    14.6780 C.3          1 NAP1001   0.0000
     6 C4B         29.6190    -5.2140    13.8170 C.3          1 NAP1001   0.0000
     7 O4B         28.6600    -5.1920    12.7790 O.3          1 NAP1001   0.0000
     8 C3B         30.9860    -5.1240    13.1610 C.3          1 NAP1001   0.0000
     9 O3B         31.5540    -6.4120    13.2290 O.3          1 NAP1001   0.0000
    10 C2B         30.6820    -4.8370    11.7070 C.3          1 NAP1001   0.0000
    11 O2B         31.5670    -5.5250    10.8570 O.3          1 NAP1001   0.0000
    12 C1B         29.3020    -5.4410    11.5540 C.3          1 NAP1001   0.0000
    13 N9A         28.5000    -4.8270    10.4920 N.pl3        1 NAP1001   0.0000
    14 C8A         28.6270    -3.5730     9.9330 C.2          1 NAP1001   0.0000
    15 N7A         27.6780    -3.4420     9.0010 N.2          1 NAP1001   0.0000
    16 C5A         26.9340    -4.5790     8.9560 C.ar         1 NAP1001   0.0000
    17 C6A         25.8270    -4.9810     8.1910 C.ar         1 NAP1001   0.0000
    18 N6A         25.2550    -4.2070     7.2480 N.pl3        1 NAP1001   0.0000
    19 N1A         25.3080    -6.2270     8.4380 N.ar         1 NAP1001   0.0000
    20 C2A         25.8460    -7.0950     9.3700 C.ar         1 NAP1001   0.0000
    21 N3A         26.9340    -6.7070    10.1130 N.ar         1 NAP1001   0.0000
    22 C4A         27.4500    -5.4610     9.9010 C.ar         1 NAP1001   0.0000
    23 O3          29.0830    -2.5750    17.4690 O.3          1 NAP1001   0.0000
    24 PN          28.6390    -3.1070    18.9180 P.3          1 NAP1001   0.0000
    25 O1N         28.7640    -4.5730    18.9180 O.co2        1 NAP1001   0.0000
    26 O2N         29.3290    -2.2830    19.9580 O.co2        1 NAP1001  -1.0000
    27 O5D         27.0790    -2.7060    18.9910 O.3          1 NAP1001   0.0000
    28 C5D         26.1110    -3.4050    18.2120 C.3          1 NAP1001   0.0000
    29 C4D         24.7470    -3.3350    18.8950 C.3          1 NAP1001   0.0000
    30 O4D         24.9240    -3.7600    20.2410 O.3          1 NAP1001   0.0000
    31 C3D         24.1310    -1.9350    18.9630 C.3          1 NAP1001   0.0000
    32 O3D         22.7090    -2.0220    18.8920 O.3          1 NAP1001   0.0000
    33 C2D         24.5230    -1.4510    20.3520 C.3          1 NAP1001   0.0000
    34 O2D         23.6630    -0.4330    20.8380 O.3          1 NAP1001   0.0000
    35 C1D         24.4150    -2.7670    21.1230 C.3          1 NAP1001   0.0000
    36 N1N         25.1520    -2.8250    22.4000 N.ar         1 NAP1001   1.0000
    37 C2N         26.4360    -2.3100    22.4870 C.ar         1 NAP1001   0.0000
    38 C3N         27.1480    -2.3680    23.6890 C.ar         1 NAP1001   0.0000
    39 C7N         28.5720    -1.8840    23.7540 C.2          1 NAP1001   0.0000
    40 O7N         29.1450    -1.6790    25.0120 O.2          1 NAP1001   0.0000
    41 N7N         29.2830    -1.6220    22.6520 N.am         1 NAP1001   0.0000
    42 C4N         26.5340    -2.9510    24.8100 C.ar         1 NAP1001   0.0000
    43 C5N         25.2390    -3.4780    24.7140 C.ar         1 NAP1001   0.0000
    44 C6N         24.5360    -3.4040    23.4970 C.ar         1 NAP1001   0.0000
    45 P2B         32.9090    -4.7810    10.3690 P.3          1 NAP1001   0.0000
    46 O1X         32.5230    -3.4700     9.7340 O.co2        1 NAP1001   0.0000
    47 O2X         33.6310    -5.6400     9.4210 O.co2        1 NAP1001  -1.0000
    48 O3X         33.7180    -4.5430    11.6490 O.co2        1 NAP1001  -1.0000
    49 H5B1        29.4485    -3.1559    14.1418 H            1 NAP1001   0.0000
    50 H5B2        28.4265    -4.0340    15.0644 H            1 NAP1001   0.0000
    51 H4B         29.5390    -6.0527    14.3557 H            1 NAP1001   0.0000
    52 H3B         31.5672    -4.4249    13.5776 H            1 NAP1001   0.0000
    53 H5          31.7402    -6.7435    12.3041 H            1 NAP1001   0.0000
    54 H2B         30.6777    -3.8550    11.5180 H            1 NAP1001   0.0000
    55 H1B         29.3753    -6.4264    11.4006 H            1 NAP1001   0.0000
    56 H8A         29.3081    -2.8840    10.1808 H            1 NAP1001   0.0000
    57 H6A1        24.4675    -4.5458     6.7332 H            1 NAP1001   0.0000
    58 H6A2        25.6180    -3.2938     7.0629 H            1 NAP1001   0.0000
    59 H2A         25.4447    -8.0013     9.5025 H            1 NAP1001   0.0000
    60 H5D1        26.3873    -4.3617    18.1200 H            1 NAP1001   0.0000
    61 H5D2        26.0500    -2.9870    17.3056 H            1 NAP1001   0.0000
    62 H4D         24.1125    -3.9543    18.4325 H            1 NAP1001   0.0000
    63 H3D         24.4979    -1.3380    18.2496 H            1 NAP1001   0.0000
    64 H16         22.4442    -2.4559    18.0308 H            1 NAP1001   0.0000
    65 H2D         25.4700    -1.1298    20.3501 H            1 NAP1001   0.0000
    66 H18         24.1944     0.3950    21.0169 H            1 NAP1001   0.0000
    67 H1D         23.4495    -2.9580    21.2998 H            1 NAP1001   0.0000
    68 H2N         26.8574    -1.8927    21.6818 H            1 NAP1001   0.0000
    69 H7N1        30.2271    -1.3018    22.7305 H            1 NAP1001   0.0000
    70 H7N2        28.8706    -1.7463    21.7495 H            1 NAP1001   0.0000
    71 H4N         27.0236    -2.9902    25.6811 H            1 NAP1001   0.0000
    72 H5N         24.8140    -3.9071    25.5110 H            1 NAP1001   0.0000
    73 H6N         23.6058    -3.7640    23.4255 H            1 NAP1001   0.0000
@<TRIPOS>BOND
     1    1    2      ar
     2    1    3      ar
     3    1    4       1
     4    1   23       1
     5    4    5       1
     6    5    6       1
     7    6    7       1
     8    6    8       1
     9    7   12       1
    10    8    9       1
    11    8   10       1
    12   10   11       1
    13   10   12       1
    14   11   45       1
    15   12   13       1
    16   13   14       1
    17   13   22       1
    18   14   15       2
    19   15   16       1
    20   16   17      ar
    21   16   22      ar
    22   17   18       1
    23   17   19      ar
    24   19   20      ar
    25   20   21      ar
    26   21   22      ar
    27   23   24       1
    28   24   25      ar
    29   24   26      ar
    30   24   27       1
    31   27   28       1
    32   28   29       1
    33   29   30       1
    34   29   31       1
    35   30   35       1
    36   31   32       1
    37   31   33       1
    38   33   34       1
    39   33   35       1
    40   35   36       1
    41   36   37      ar
    42   36   44      ar
    43   37   38      ar
    44   38   39       1
    45   38   42      ar
    46   39   40       2
    47   39   41      am
    48   42   43      ar
    49   43   44      ar
    50   45   46      ar
    51   45   47      ar
    52   45   48      ar
    53   43   72       1
    54    5   49       1
    55    5   50       1
    56    6   51       1
    57    8   52       1
    58    9   53       1
    59   10   54       1
    60   12   55       1
    61   14   56       1
    62   18   57       1
    63   18   58       1
    64   20   59       1
    65   44   73       1
    66   28   60       1
    67   28   61       1
    68   29   62       1
    69   31   63       1
    70   32   64       1
    71   33   65       1
    72   34   66       1
    73   35   67       1
    74   37   68       1
    75   41   69       1
    76   41   70       1
    77   42   71       1
@<TRIPOS>SUBSTRUCTURE
     1 NAP1001     1 GROUP             4 B     NAP     0 **** NAP B1001
