@<TRIPOS>MOLECULE
1ha2_SWF_1_ligand
   39    41     1     0     0
SMALL
NO_CHARGES


@<TRIPOS>ATOM
     1 C15         35.0060    14.6680     9.9100 C.ar         1 SWF3001   0.0000
     2 C5          31.0190    13.8500    10.0360 C.3          1 SWF3001   0.0000
     3 C4          29.9300    14.9030    10.3560 C.3          1 SWF3001   0.0000
     4 C2          28.9650    14.3650    11.3650 C.2          1 SWF3001   0.0000
     5 C1          29.4460    13.7280    12.6460 C.3          1 SWF3001   0.0000
     6 C6          30.6330    12.8810     8.9460 C.ar         1 SWF3001   0.0000
     7 C7          30.0900    13.2020     7.6040 C.ar         1 SWF3001   0.0000
     8 C8          29.7610    12.1710     6.6290 C.ar         1 SWF3001   0.0000
     9 C9          29.9430    10.7960     6.9190 C.ar         1 SWF3001   0.0000
    10 C10         30.4620    10.4420     8.2080 C.ar         1 SWF3001   0.0000
    11 C22         32.4480    15.7340     8.9390 C.2          1 SWF3001   0.0000
    12 C11         30.8070    11.4600     9.2200 C.ar         1 SWF3001   0.0000
    13 C12         32.4210    14.4960     9.7730 C.2          1 SWF3001   0.0000
    14 C13         33.6760    14.0020    10.2420 C.2          1 SWF3001   0.0000
    15 C16         36.3320    14.2380    10.3120 C.ar         1 SWF3001   0.0000
    16 C17         37.4980    14.9630     9.8910 C.ar         1 SWF3001   0.0000
    17 C18         37.3600    16.1260     9.0710 C.ar         1 SWF3001   0.0000
    18 C19         36.0950    16.5840     8.6680 C.ar         1 SWF3001   0.0000
    19 C20         34.9140    15.8670     9.0800 C.ar         1 SWF3001   0.0000
    20 O21         33.6890    16.3340     8.6490 O.2          1 SWF3001   0.0000
    21 O23         31.5210    16.3030     8.4460 O.2          1 SWF3001   0.0000
    22 O3          27.6030    14.5150    11.0770 O.2          1 SWF3001   0.0000
    23 O14         33.8380    12.9030    10.9990 O.3          1 SWF3001   0.0000
    24 H1          31.1217    13.3016    10.8659 H            1 SWF3001   0.0000
    25 H2          29.4362    15.1318     9.5171 H            1 SWF3001   0.0000
    26 H3          30.3647    15.7259    10.7219 H            1 SWF3001   0.0000
    27 H4          28.6589    13.4322    13.1872 H            1 SWF3001   0.0000
    28 H5          30.0185    12.9370    12.4304 H            1 SWF3001   0.0000
    29 H6          29.9793    14.3928    13.1691 H            1 SWF3001   0.0000
    30 H7          29.9444    14.1607     7.3596 H            1 SWF3001   0.0000
    31 H8          29.3991    12.4392     5.7362 H            1 SWF3001   0.0000
    32 H9          29.7162    10.0933     6.2447 H            1 SWF3001   0.0000
    33 H10         30.5944     9.4756     8.4283 H            1 SWF3001   0.0000
    34 H11         31.1657    11.1701    10.1073 H            1 SWF3001   0.0000
    35 H12         36.4352    13.4276    10.8888 H            1 SWF3001   0.0000
    36 H13         38.4068    14.6542    10.1715 H            1 SWF3001   0.0000
    37 H14         38.1781    16.6218     8.7795 H            1 SWF3001   0.0000
    38 H15         36.0139    17.4023     8.0989 H            1 SWF3001   0.0000
    39 H16         34.7556    12.6162    11.2742 H            1 SWF3001   0.0000
@<TRIPOS>BOND
     1    1   14       1
     2    1   15      ar
     3    1   19      ar
     4    2    3       1
     5    2    6       1
     6    2   13       1
     7    3    4       1
     8    4    5       1
     9    4   22       2
    10    6    7      ar
    11    6   12      ar
    12    7    8      ar
    13    8    9      ar
    14    9   10      ar
    15   10   12      ar
    16   11   13       1
    17   11   20       1
    18   11   21       2
    19   13   14       2
    20   14   23       1
    21   15   16      ar
    22   16   17      ar
    23   17   18      ar
    24   18   19      ar
    25   19   20       1
    26    2   24       1
    27    3   25       1
    28    3   26       1
    29    5   27       1
    30    5   28       1
    31    5   29       1
    32    7   30       1
    33    8   31       1
    34    9   32       1
    35   10   33       1
    36   12   34       1
    37   15   35       1
    38   16   36       1
    39   17   37       1
    40   18   38       1
    41   23   39       1
@<TRIPOS>SUBSTRUCTURE
     1 SWF3001     1 GROUP             4 A     SWF     0 **** SWF A3001
