@<TRIPOS>MOLECULE
2y3s_TIR_2_ligand
   58    60     1     0     0
SMALL
NO_CHARGES


@<TRIPOS>ATOM
     1 N           33.0220   -25.2390    14.4220 N.am         1 TIR700   0.0000
     2 C1          31.7880   -25.9460    14.6500 C.3          1 TIR700   0.0000
     3 O1          30.4870   -26.1910    16.7030 O.3          1 TIR700   0.0000
     4 O2          28.6330   -22.6310    23.3690 O.3          1 TIR700   0.0000
     5 O3          26.8140   -22.5650    21.9750 O.3          1 TIR700   0.0000
     6 C4          32.6330   -24.4800    18.1660 C.2          1 TIR700   0.0000
     7 O4          24.7130   -24.9640    23.6800 O.3          1 TIR700   0.0000
     8 C5          31.6580   -24.9380    19.1810 C.2          1 TIR700   0.0000
     9 O5          33.6540   -23.7190    18.4810 O.2          1 TIR700   0.0000
    10 C6          31.8050   -24.5620    20.4540 C.2          1 TIR700   0.0000
    11 O6          34.4960   -23.9470    15.7000 O.2          1 TIR700   0.0000
    12 C7          30.9110   -25.0380    21.5210 C.2          1 TIR700   0.0000
    13 C8          30.7840   -24.2130    22.6190 C.2          1 TIR700   0.0000
    14 C9          29.9340   -24.5330    23.8550 C.3          1 TIR700   0.0000
    15 C10         28.5030   -23.9950    23.7430 C.3          1 TIR700   0.0000
    16 C11         27.4100   -21.9290    23.1100 C.3          1 TIR700   0.0000
    17 C12         27.7030   -20.4470    22.7170 C.3          1 TIR700   0.0000
    18 C13         26.4110   -23.9140    22.2860 C.3          1 TIR700   0.0000
    19 C14         27.6370   -24.7390    22.6710 C.3          1 TIR700   0.0000
    20 C15         27.2180   -26.1870    23.0550 C.3          1 TIR700   0.0000
    21 C16         25.2570   -23.7540    23.2930 C.3          1 TIR700   0.0000
    22 C17         25.5130   -22.9010    24.5000 C.2          1 TIR700   0.0000
    23 C18         26.5370   -21.9900    24.3810 C.2          1 TIR700   0.0000
    24 C19         26.8900   -21.0890    25.5370 C.3          1 TIR700   0.0000
    25 C20         30.7380   -24.0890    25.0840 C.3          1 TIR700   0.0000
    26 C21         30.1780   -26.3760    21.3700 C.3          1 TIR700   0.0000
    27 C22         33.4250   -24.6550    15.6070 C.2          1 TIR700   0.0000
    28 C3          32.5390   -24.8980    16.7660 C.2          1 TIR700   0.0000
    29 C2          31.5400   -25.7270    16.0970 C.2          1 TIR700   0.0000
    30 H1          33.5071   -25.1806    13.5495 H            1 TIR700   0.0000
    31 H2          31.8887   -26.9198    14.4460 H            1 TIR700   0.0000
    32 H3          31.0476   -25.5643    14.0967 H            1 TIR700   0.0000
    33 H4          29.8074   -26.7175    16.1921 H            1 TIR700   0.0000
    34 H5          23.9666   -25.2072    23.0606 H            1 TIR700   0.0000
    35 H6          30.8937   -25.5255    18.9151 H            1 TIR700   0.0000
    36 H7          32.5480   -23.9356    20.6899 H            1 TIR700   0.0000
    37 H8          31.2810   -23.3453    22.6085 H            1 TIR700   0.0000
    38 H9          29.8627   -25.5293    23.9037 H            1 TIR700   0.0000
    39 H10         28.0537   -24.0548    24.6344 H            1 TIR700   0.0000
    40 H11         26.8408   -19.9724    22.5400 H            1 TIR700   0.0000
    41 H12         28.1859   -19.9928    23.4657 H            1 TIR700   0.0000
    42 H13         28.2700   -20.4264    21.8935 H            1 TIR700   0.0000
    43 H14         26.0294   -24.3135    21.4525 H            1 TIR700   0.0000
    44 H15         28.2014   -24.8132    21.8488 H            1 TIR700   0.0000
    45 H16         26.6714   -26.5826    22.3170 H            1 TIR700   0.0000
    46 H17         28.0362   -26.7436    23.1991 H            1 TIR700   0.0000
    47 H18         26.6771   -26.1656    23.8958 H            1 TIR700   0.0000
    48 H19         24.5302   -23.2870    22.7893 H            1 TIR700   0.0000
    49 H20         24.9738   -22.9889    25.3376 H            1 TIR700   0.0000
    50 H21         26.2424   -21.2367    26.2846 H            1 TIR700   0.0000
    51 H22         27.8159   -21.2979    25.8518 H            1 TIR700   0.0000
    52 H23         26.8459   -20.1347    25.2414 H            1 TIR700   0.0000
    53 H24         30.2135   -24.2825    25.9131 H            1 TIR700   0.0000
    54 H25         31.6043   -24.5877    25.1136 H            1 TIR700   0.0000
    55 H26         30.9202   -23.1074    25.0263 H            1 TIR700   0.0000
    56 H27         29.6177   -26.5425    22.1814 H            1 TIR700   0.0000
    57 H28         29.5916   -26.3453    20.5605 H            1 TIR700   0.0000
    58 H29         30.8466   -27.1129    21.2696 H            1 TIR700   0.0000
@<TRIPOS>BOND
     1    1    2       1
     2    1   27      am
     3    2   29       1
     4    3   29       1
     5    4   15       1
     6    4   16       1
     7    5   16       1
     8    5   18       1
     9    6    8       1
    10    6    9       2
    11    6   28       1
    12    7   21       1
    13    8   10       2
    14   10   12       1
    15   11   27       2
    16   12   13       2
    17   12   26       1
    18   13   14       1
    19   14   15       1
    20   14   25       1
    21   15   19       1
    22   16   17       1
    23   16   23       1
    24   18   19       1
    25   18   21       1
    26   19   20       1
    27   21   22       1
    28   22   23       2
    29   23   24       1
    30   27   28       1
    31   28   29       2
    32    1   30       1
    33    2   31       1
    34    2   32       1
    35    3   33       1
    36    7   34       1
    37    8   35       1
    38   10   36       1
    39   13   37       1
    40   14   38       1
    41   15   39       1
    42   17   40       1
    43   17   41       1
    44   17   42       1
    45   18   43       1
    46   19   44       1
    47   20   45       1
    48   20   46       1
    49   20   47       1
    50   21   48       1
    51   22   49       1
    52   24   50       1
    53   24   51       1
    54   24   52       1
    55   25   53       1
    56   25   54       1
    57   25   55       1
    58   26   56       1
    59   26   57       1
    60   26   58       1
@<TRIPOS>SUBSTRUCTURE
     1 TIR700      1 GROUP             4 B     TIR     0 **** TIR B 700
