@<TRIPOS>MOLECULE
5hsa_FAS_2_ligand
   84    89     1     0     0
SMALL
NO_CHARGES


@<TRIPOS>ATOM
     1 PA           3.4370   -71.3250   176.1760 P.3          1 FAS701   0.0000
     2 O1A          2.9360   -69.9830   176.6440 O.co2        1 FAS701   0.0000
     3 O2A          4.9200   -71.6250   176.1240 O.co2        1 FAS701  -1.0000
     4 O5B          2.7460   -72.4310   177.1090 O.3          1 FAS701   0.0000
     5 C5B          3.3660   -73.6900   177.3100 C.3          1 FAS701   0.0000
     6 C4B          3.0970   -74.1270   178.7340 C.3          1 FAS701   0.0000
     7 O4B          2.9340   -75.5450   178.7760 O.3          1 FAS701   0.0000
     8 C3B          4.2800   -73.7710   179.6160 C.3          1 FAS701   0.0000
     9 O3B          3.7870   -73.2690   180.8620 O.3          1 FAS701   0.0000
    10 C2B          4.9760   -75.0950   179.8410 C.3          1 FAS701   0.0000
    11 O2B          5.6050   -75.1350   181.1200 O.3          1 FAS701   0.0000
    12 C1B          3.8390   -76.0960   179.7330 C.3          1 FAS701   0.0000
    13 N9A          4.3100   -77.4130   179.2500 N.pl3        1 FAS701   0.0000
    14 C8A          5.1710   -77.6280   178.2390 C.2          1 FAS701   0.0000
    15 N7A          5.3910   -78.9550   178.0630 N.2          1 FAS701   0.0000
    16 C5A          4.6540   -79.6150   178.9770 C.ar         1 FAS701   0.0000
    17 C6A          4.4180   -81.0330   179.3380 C.ar         1 FAS701   0.0000
    18 N6A          5.0310   -82.0360   178.6660 N.pl3        1 FAS701   0.0000
    19 N1A          3.5740   -81.2850   180.3620 N.ar         1 FAS701   0.0000
    20 C2A          2.9570   -80.2920   181.0370 C.ar         1 FAS701   0.0000
    21 N3A          3.1200   -78.9840   180.7640 N.ar         1 FAS701   0.0000
    22 C4A          3.9460   -78.5900   179.7620 C.ar         1 FAS701   0.0000
    23 N1           5.0700   -62.5000   172.9180 N.2          1 FAS701   0.0000
    24 C2           4.6240   -61.2210   172.9040 C.2          1 FAS701   0.0000
    25 O2           3.4620   -60.9880   172.5090 O.2          1 FAS701   0.0000
    26 N3           5.3860   -60.1810   173.2870 N.pl3        1 FAS701   0.0000
    27 C4           6.6460   -60.3320   173.7120 C.2          1 FAS701   0.0000
    28 O4           7.3130   -59.3350   174.0560 O.2          1 FAS701   0.0000
    29 C4X          7.2210   -61.7000   173.7580 C.2          1 FAS701   0.0000
    30 N5           8.4870   -61.9680   174.1650 N.2          1 FAS701   0.0000
    31 C5X          8.8220   -63.2210   174.5460 C.ar         1 FAS701   0.0000
    32 C6           9.9540   -63.4560   175.3190 C.ar         1 FAS701   0.0000
    33 C7          10.2770   -64.7480   175.7210 C.ar         1 FAS701   0.0000
    34 C7M         11.5030   -65.0010   176.5590 C.3          1 FAS701   0.0000
    35 C8           9.4080   -65.8840   175.3210 C.ar         1 FAS701   0.0000
    36 C8M          9.7440   -67.2900   175.7430 C.3          1 FAS701   0.0000
    37 C9           8.2750   -65.6480   174.5530 C.ar         1 FAS701   0.0000
    38 C9A          7.9510   -64.3590   174.1460 C.ar         1 FAS701   0.0000
    39 N10          6.8040   -64.1070   173.3590 N.pl3        1 FAS701   0.0000
    40 C10          6.3240   -62.7910   173.3240 C.2          1 FAS701   0.0000
    41 C1'          5.9430   -65.2030   172.9190 C.3          1 FAS701   0.0000
    42 C2'          4.9470   -65.7400   173.9210 C.3          1 FAS701   0.0000
    43 O2'          3.7730   -64.9290   173.8880 O.3          1 FAS701   0.0000
    44 C3'          4.6270   -67.1620   173.4860 C.3          1 FAS701   0.0000
    45 O3'          4.5560   -67.2430   172.0590 O.3          1 FAS701   0.0000
    46 C4'          3.3070   -67.6340   174.0570 C.3          1 FAS701   0.0000
    47 O4'          3.4130   -67.7140   175.4840 O.3          1 FAS701   0.0000
    48 C5'          2.9830   -69.0030   173.4850 C.3          1 FAS701   0.0000
    49 O5'          1.7940   -69.4390   174.1240 O.3          1 FAS701   0.0000
    50 P            1.4200   -70.9980   174.2120 P.3          1 FAS701   0.0000
    51 O1P          0.3260   -71.1380   175.2450 O.co2        1 FAS701   0.0000
    52 O2P          1.2010   -71.4550   172.7950 O.co2        1 FAS701  -1.0000
    53 O3           2.7570   -71.7080   174.7670 O.3          1 FAS701   0.0000
    54 H5B1         4.3516   -73.6098   177.1609 H            1 FAS701   0.0000
    55 H5B2         2.9859   -74.3602   176.6726 H            1 FAS701   0.0000
    56 H4B          2.2709   -73.6796   179.0765 H            1 FAS701   0.0000
    57 H3B          4.8842   -73.1113   179.1691 H            1 FAS701   0.0000
    58 H5           3.2299   -73.9702   181.3069 H            1 FAS701   0.0000
    59 H2B          5.6493   -75.2581   179.1198 H            1 FAS701   0.0000
    60 H7           4.9162   -75.0109   181.8342 H            1 FAS701   0.0000
    61 H1B          3.3844   -76.1968   180.6180 H            1 FAS701   0.0000
    62 H8A          5.5926   -76.9060   177.6904 H            1 FAS701   0.0000
    63 H6A1         4.8604   -82.9873   178.9228 H            1 FAS701   0.0000
    64 H6A2         5.6543   -81.8255   177.9129 H            1 FAS701   0.0000
    65 H2A          2.3421   -80.5431   181.7845 H            1 FAS701   0.0000
    66 H13          4.9965   -59.2606   173.2529 H            1 FAS701   0.0000
    67 H14         10.5396   -62.6912   175.5876 H            1 FAS701   0.0000
    68 H7M1        11.5783   -65.9791   176.7528 H            1 FAS701   0.0000
    69 H7M2        12.3153   -64.6962   176.0618 H            1 FAS701   0.0000
    70 H7M3        11.4293   -64.4956   177.4187 H            1 FAS701   0.0000
    71 H8M1         9.0538   -67.9192   175.3857 H            1 FAS701   0.0000
    72 H8M2        10.6423   -67.5407   175.3821 H            1 FAS701   0.0000
    73 H8M3         9.7591   -67.3437   176.7414 H            1 FAS701   0.0000
    74 H21          7.6867   -66.4128   174.2903 H            1 FAS701   0.0000
    75 H1'1         6.5356   -65.9612   172.6471 H            1 FAS701   0.0000
    76 H1'2         5.4277   -64.8812   172.1247 H            1 FAS701   0.0000
    77 H2'          5.3436   -65.7390   174.8390 H            1 FAS701   0.0000
    78 H25          4.0207   -63.9941   173.6338 H            1 FAS701   0.0000
    79 H3'          5.3534   -67.7692   173.8079 H            1 FAS701   0.0000
    80 H27          5.4609   -67.4586   171.6919 H            1 FAS701   0.0000
    81 H4'          2.5847   -66.9880   173.8101 H            1 FAS701   0.0000
    82 H29          3.2405   -68.6538   175.7789 H            1 FAS701   0.0000
    83 H5'1         3.7296   -69.6410   173.6733 H            1 FAS701   0.0000
    84 H5'2         2.8403   -68.9391   172.4973 H            1 FAS701   0.0000
@<TRIPOS>BOND
     1    1    2      ar
     2    1    3      ar
     3    1    4       1
     4    1   53       1
     5    4    5       1
     6    5    6       1
     7    6    7       1
     8    6    8       1
     9    7   12       1
    10    8    9       1
    11    8   10       1
    12   10   11       1
    13   10   12       1
    14   12   13       1
    15   13   14       1
    16   13   22       1
    17   14   15       2
    18   15   16       1
    19   16   17      ar
    20   16   22      ar
    21   17   18       1
    22   17   19      ar
    23   19   20      ar
    24   20   21      ar
    25   21   22      ar
    26   23   24       1
    27   23   40       2
    28   24   25       2
    29   24   26       1
    30   26   27       1
    31   27   28       2
    32   27   29       1
    33   29   30       2
    34   29   40       1
    35   30   31       1
    36   31   32      ar
    37   31   38      ar
    38   32   33      ar
    39   33   34       1
    40   33   35      ar
    41   35   36       1
    42   35   37      ar
    43   37   38      ar
    44   38   39       1
    45   39   40       1
    46   39   41       1
    47   41   42       1
    48   42   43       1
    49   42   44       1
    50   44   45       1
    51   44   46       1
    52   46   47       1
    53   46   48       1
    54   48   49       1
    55   49   50       1
    56   50   51      ar
    57   50   52      ar
    58   50   53       1
    59   48   84       1
    60    5   54       1
    61    5   55       1
    62    6   56       1
    63    8   57       1
    64    9   58       1
    65   10   59       1
    66   11   60       1
    67   12   61       1
    68   14   62       1
    69   18   63       1
    70   18   64       1
    71   20   65       1
    72   26   66       1
    73   32   67       1
    74   34   68       1
    75   34   69       1
    76   34   70       1
    77   36   71       1
    78   36   72       1
    79   36   73       1
    80   37   74       1
    81   41   75       1
    82   41   76       1
    83   42   77       1
    84   43   78       1
    85   44   79       1
    86   45   80       1
    87   46   81       1
    88   47   82       1
    89   48   83       1
@<TRIPOS>SUBSTRUCTURE
     1 FAS701      1 GROUP             4 B     FAS     0 **** FAS B 701
