@<TRIPOS>MOLECULE
3tin_ADP_1_ligand
   39    41     1     0     0
SMALL
NO_CHARGES


@<TRIPOS>ATOM
     1 PB          22.6410     8.0220    17.4920 P.3          1 ADP702   0.0000
     2 O1B         22.9230     7.5840    16.1030 O.co2        1 ADP702   0.0000
     3 O2B         21.9030     9.4550    17.4620 O.co2        1 ADP702  -1.0000
     4 O3B         24.0140     8.1590    18.3220 O.co2        1 ADP702  -1.0000
     5 PA          22.3920     5.4980    18.2570 P.3          1 ADP702   0.0000
     6 O1A         22.6540     5.0180    16.8680 O.co2        1 ADP702   0.0000
     7 O2A         23.7810     5.5980    19.0690 O.co2        1 ADP702  -1.0000
     8 O3A         21.6680     6.9460    18.2150 O.3          1 ADP702   0.0000
     9 O5'         21.3980     4.4610    19.0000 O.3          1 ADP702   0.0000
    10 C5'         22.0480     3.1850    19.0590 C.3          1 ADP702   0.0000
    11 C4'         21.1350     2.1790    19.7670 C.3          1 ADP702   0.0000
    12 O4'         19.8900     2.0330    19.0250 O.3          1 ADP702   0.0000
    13 C3'         21.8170     0.7990    19.8570 C.3          1 ADP702   0.0000
    14 O3'         22.1920     0.4970    21.2060 O.3          1 ADP702   0.0000
    15 C2'         20.8080    -0.2140    19.2980 C.3          1 ADP702   0.0000
    16 O2'         20.4840    -1.2240    20.2660 O.3          1 ADP702   0.0000
    17 C1'         19.5660     0.6170    18.8750 C.3          1 ADP702   0.0000
    18 N9          19.2240     0.3200    17.4650 N.pl3        1 ADP702   0.0000
    19 C8          19.6760     0.9830    16.3540 C.2          1 ADP702   0.0000
    20 N7          19.1780     0.4540    15.2750 N.2          1 ADP702   0.0000
    21 C5          18.3770    -0.5780    15.6140 C.ar         1 ADP702   0.0000
    22 C6          17.5820    -1.5120    14.8990 C.ar         1 ADP702   0.0000
    23 N6          17.5190    -1.4770    13.5160 N.pl3        1 ADP702   0.0000
    24 N1          16.8900    -2.4370    15.5920 N.ar         1 ADP702   0.0000
    25 C2          16.9370    -2.4950    16.9250 C.ar         1 ADP702   0.0000
    26 N3          17.6700    -1.6410    17.6340 N.ar         1 ADP702   0.0000
    27 C4          18.3950    -0.6800    17.0290 C.ar         1 ADP702   0.0000
    28 H5'1        22.9057     3.2710    19.5659 H            1 ADP702   0.0000
    29 H5'2        22.2398     2.8654    18.1311 H            1 ADP702   0.0000
    30 H4'         20.9331     2.5084    20.6893 H            1 ADP702   0.0000
    31 H3'         22.6348     0.7991    19.2814 H            1 ADP702   0.0000
    32 H5          23.1819     0.3640    21.2550 H            1 ADP702   0.0000
    33 H2'         21.1992    -0.6515    18.4883 H            1 ADP702   0.0000
    34 H7          20.9910    -1.0512    21.1104 H            1 ADP702   0.0000
    35 H1'         18.7915     0.3860    19.4638 H            1 ADP702   0.0000
    36 H9          20.3008     1.7636    16.3705 H            1 ADP702   0.0000
    37 H10         16.9552    -2.1406    13.0242 H            1 ADP702   0.0000
    38 H11         18.0373    -0.7882    13.0091 H            1 ADP702   0.0000
    39 H12         16.4085    -3.1973    17.4018 H            1 ADP702   0.0000
@<TRIPOS>BOND
     1    1    2      ar
     2    1    3      ar
     3    1    4      ar
     4    1    8       1
     5    5    6      ar
     6    5    7      ar
     7    5    8       1
     8    5    9       1
     9    9   10       1
    10   10   11       1
    11   11   12       1
    12   11   13       1
    13   12   17       1
    14   13   14       1
    15   13   15       1
    16   15   16       1
    17   15   17       1
    18   17   18       1
    19   18   19       1
    20   18   27       1
    21   19   20       2
    22   20   21       1
    23   21   22      ar
    24   21   27      ar
    25   22   23       1
    26   22   24      ar
    27   24   25      ar
    28   25   26      ar
    29   26   27      ar
    30   25   39       1
    31   23   38       1
    32   23   37       1
    33   10   28       1
    34   10   29       1
    35   11   30       1
    36   13   31       1
    37   14   32       1
    38   15   33       1
    39   16   34       1
    40   17   35       1
    41   19   36       1
@<TRIPOS>SUBSTRUCTURE
     1 ADP702      1 GROUP             4 A     ADP     0 **** ADP A 702
