@<TRIPOS>MOLECULE
1ddt_APU_1_ligand
   65    69     1     0     0
SMALL
NO_CHARGES


@<TRIPOS>ATOM
     1 PA          15.9830    31.8630    39.6330 P.3          1 APU950   0.0000
     2 O1A         16.4700    30.5130    39.3470 O.co2        1 APU950   0.0000
     3 O2A         15.1650    32.5380    38.5620 O.co2        1 APU950  -1.0000
     4 O5B         17.6570    37.0070    39.8650 O.3          1 APU950   0.0000
     5 C5B         16.5990    36.2950    39.2430 C.3          1 APU950   0.0000
     6 C4B         17.1490    34.9430    38.7170 C.3          1 APU950   0.0000
     7 O4B         18.3440    35.0270    37.9200 O.3          1 APU950   0.0000
     8 C3B         17.5320    34.1130    39.9590 C.3          1 APU950   0.0000
     9 O3B         17.3420    32.7180    39.8030 O.3          1 APU950   0.0000
    10 C2B         19.0480    34.2410    40.0180 C.3          1 APU950   0.0000
    11 O2B         19.7470    33.2070    40.8260 O.3          1 APU950   0.0000
    12 C1B         19.4130    34.3040    38.5530 C.3          1 APU950   0.0000
    13 N9A         20.6690    35.0160    38.2780 N.pl3        1 APU950   0.0000
    14 C8A         21.8000    34.4610    37.7610 C.2          1 APU950   0.0000
    15 N7A         22.7400    35.3050    37.4800 N.2          1 APU950   0.0000
    16 C5A         22.1840    36.5250    37.7780 C.ar         1 APU950   0.0000
    17 C6A         22.7640    37.7770    37.7060 C.ar         1 APU950   0.0000
    18 N6A         23.9530    37.8400    37.1250 N.pl3        1 APU950   0.0000
    19 N1A         22.0910    38.8250    38.2250 N.ar         1 APU950   0.0000
    20 C2A         20.8570    38.5800    38.7050 C.ar         1 APU950   0.0000
    21 N3A         20.1580    37.4430    38.7240 N.ar         1 APU950   0.0000
    22 C4A         20.9210    36.4040    38.2600 C.ar         1 APU950   0.0000
    23 N1U         15.2930    34.0250    44.7590 N.pl3        1 APU950   0.0000
    24 C2U         15.1260    34.5920    45.9810 C.2          1 APU950   0.0000
    25 O2U         13.9890    34.9540    46.3340 O.2          1 APU950   0.0000
    26 N3U         16.2050    34.7390    46.8160 N.pl3        1 APU950   0.0000
    27 C4U         17.4310    34.1160    46.5510 C.2          1 APU950   0.0000
    28 O4U         18.3510    34.1080    47.3480 O.2          1 APU950   0.0000
    29 C5U         17.4870    33.4410    45.2770 C.2          1 APU950   0.0000
    30 C6U         16.4620    33.4350    44.4230 C.2          1 APU950   0.0000
    31 C1D         14.0850    33.8090    43.9210 C.3          1 APU950   0.0000
    32 C2D         14.2160    34.5290    42.6230 C.3          1 APU950   0.0000
    33 O2D         13.7750    35.9410    42.6360 O.3          1 APU950   0.0000
    34 C3D         13.4070    33.6790    41.6490 C.3          1 APU950   0.0000
    35 O3D         12.0860    34.1590    41.5190 O.3          1 APU950   0.0000
    36 C4D         13.3020    32.3040    42.3570 C.3          1 APU950   0.0000
    37 O4D         14.0440    32.4390    43.5440 O.3          1 APU950   0.0000
    38 O5D         15.2020    31.8530    41.0450 O.3          1 APU950   0.0000
    39 C5D         13.9730    31.2490    41.4680 C.3          1 APU950   0.0000
    40 PU          11.0250    34.0310    40.3410 P.3          1 APU950   0.0000
    41 O1X         11.2150    32.6030    39.7760 O.co2        1 APU950   0.0000
    42 O2X         11.3650    35.0370    39.2770 O.co2        1 APU950  -1.0000
    43 O3X          9.6800    34.0370    40.9490 O.co2        1 APU950  -1.0000
    44 H5B         18.5235    36.7652    39.4283 H            1 APU950   0.0000
    45 H5B1        16.2364    36.8302    38.4800 H            1 APU950   0.0000
    46 H5B2        15.8710    36.1262    39.9075 H            1 APU950   0.0000
    47 H4B         16.4353    34.4676    38.2027 H            1 APU950   0.0000
    48 H3B         17.0951    34.4592    40.7892 H            1 APU950   0.0000
    49 H2B         19.2599    35.1318    40.4200 H            1 APU950   0.0000
    50 H7          20.2523    33.6486    41.5674 H            1 APU950   0.0000
    51 H1B         19.4617    33.3782    38.1780 H            1 APU950   0.0000
    52 H8A         21.8967    33.4772    37.6101 H            1 APU950   0.0000
    53 H6A1        24.4235    38.7186    37.0429 H            1 APU950   0.0000
    54 H6A2        24.3800    37.0090    36.7686 H            1 APU950   0.0000
    55 H2A         20.3942    39.3694    39.1083 H            1 APU950   0.0000
    56 H3U         16.1135    35.3056    47.6349 H            1 APU950   0.0000
    57 H5U         18.3261    32.9593    45.0245 H            1 APU950   0.0000
    58 H6U         16.5588    32.9926    43.5314 H            1 APU950   0.0000
    59 H1D         13.2526    34.0789    44.4051 H            1 APU950   0.0000
    60 H2D         15.1756    34.5014    42.3431 H            1 APU950   0.0000
    61 H18         13.0454    36.0562    43.3102 H            1 APU950   0.0000
    62 H3D         13.8608    33.6029    40.7611 H            1 APU950   0.0000
    63 H4D         12.3499    32.0656    42.5486 H            1 APU950   0.0000
    64 H5D1        13.3964    31.0347    40.6796 H            1 APU950   0.0000
    65 H5D2        14.1518    30.4133    41.9872 H            1 APU950   0.0000
@<TRIPOS>BOND
     1    1    2      ar
     2    1    3      ar
     3    1    9       1
     4    1   38       1
     5    4    5       1
     6    5    6       1
     7    6    7       1
     8    6    8       1
     9    7   12       1
    10    8    9       1
    11    8   10       1
    12   10   11       1
    13   10   12       1
    14   12   13       1
    15   13   14       1
    16   13   22       1
    17   14   15       2
    18   15   16       1
    19   16   17      ar
    20   16   22      ar
    21   17   18       1
    22   17   19      ar
    23   19   20      ar
    24   20   21      ar
    25   21   22      ar
    26   23   24       1
    27   23   30       1
    28   23   31       1
    29   24   25       2
    30   24   26       1
    31   26   27       1
    32   27   28       2
    33   27   29       1
    34   29   30       2
    35   31   32       1
    36   31   37       1
    37   32   33       1
    38   32   34       1
    39   34   35       1
    40   34   36       1
    41   35   40       1
    42   36   37       1
    43   36   39       1
    44   38   39       1
    45   40   41      ar
    46   40   42      ar
    47   40   43      ar
    48   39   65       1
    49    4   44       1
    50    5   45       1
    51    5   46       1
    52    6   47       1
    53    8   48       1
    54   10   49       1
    55   11   50       1
    56   12   51       1
    57   14   52       1
    58   18   53       1
    59   18   54       1
    60   20   55       1
    61   26   56       1
    62   29   57       1
    63   30   58       1
    64   31   59       1
    65   32   60       1
    66   33   61       1
    67   34   62       1
    68   36   63       1
    69   39   64       1
@<TRIPOS>SUBSTRUCTURE
     1 APU950      1 GROUP             4 A     APU     0 **** APU A 950
