@<TRIPOS>MOLECULE
4mdk_U94_3_ligand
   49    50     1     0     0
SMALL
NO_CHARGES


@<TRIPOS>ATOM
     1 O1          36.7290   -31.1260    32.9650 O.co2        1 U94201   0.0000
     2 C2          36.5470   -30.7410    31.7880 C.2          1 U94201   0.0000
     3 C3          37.7180   -30.0310    31.1010 C.3          1 U94201   0.0000
     4 O4          35.4920   -30.8690    31.1220 O.co2        1 U94201  -1.0000
     5 C5          37.2890   -28.6160    30.7310 C.3          1 U94201   0.0000
     6 C6          38.4270   -27.8570    30.0670 C.3          1 U94201   0.0000
     7 C7          38.0760   -26.3930    29.7370 C.3          1 U94201   0.0000
     8 O8          38.8250   -29.9620    32.0060 O.3          1 U94201   0.0000
     9 O9          37.0650   -27.9540    31.9760 O.3          1 U94201   0.0000
    10 N10         38.9610   -28.5210    28.8750 N.am         1 U94201   0.0000
    11 C11         40.1330   -29.1340    28.9050 C.2          1 U94201   0.0000
    12 O12         40.8720   -29.1100    29.8880 O.2          1 U94201   0.0000
    13 C13         40.6260   -29.8030    27.6190 C.3          1 U94201   0.0000
    14 O14         39.6690   -30.0660    26.5610 O.3          1 U94201   0.0000
    15 C15         38.7310   -31.0730    26.8710 C.3          1 U94201   0.0000
    16 C16         39.3150   -25.5360    29.4240 C.ar         1 U94201   0.0000
    17 C17         39.5790   -24.5650    30.3790 C.ar         1 U94201   0.0000
    18 C18         40.6610   -23.7100    30.2620 C.ar         1 U94201   0.0000
    19 C19         41.4710   -23.7560    29.1370 C.ar         1 U94201   0.0000
    20 C20         41.2980   -24.8190    28.2510 C.ar         1 U94201   0.0000
    21 C21         40.1750   -25.6560    28.3280 C.ar         1 U94201   0.0000
    22 C22         42.5980   -22.9440    29.1930 C.ar         1 U94201   0.0000
    23 C23         42.4890   -21.6500    29.7030 C.ar         1 U94201   0.0000
    24 C24         43.6060   -20.8150    29.7180 C.ar         1 U94201   0.0000
    25 C25         44.8130   -21.2330    29.1690 C.ar         1 U94201   0.0000
    26 C26         44.9010   -22.5030    28.6100 C.ar         1 U94201   0.0000
    27 C27         43.7760   -23.3220    28.5580 C.ar         1 U94201   0.0000
    28 CL28        46.3930   -23.0360    27.9210 Cl           1 U94201   0.0000
    29 CL29        43.5230   -19.2370    30.4100 Cl           1 U94201   0.0000
    30 H1          37.9832   -30.5321    30.2772 H            1 U94201   0.0000
    31 H2          36.4666   -28.6178    30.1621 H            1 U94201   0.0000
    32 H3          39.1730   -27.8263    30.7322 H            1 U94201   0.0000
    33 H4          37.6020   -25.9939    30.5218 H            1 U94201   0.0000
    34 H5          37.4708   -26.3816    28.9410 H            1 U94201   0.0000
    35 H6          38.5742   -30.3929    32.8729 H            1 U94201   0.0000
    36 H7          37.9138   -27.5224    32.2815 H            1 U94201   0.0000
    37 H8          38.4319   -28.5107    28.0265 H            1 U94201   0.0000
    38 H9          41.0266   -30.6816    27.8789 H            1 U94201   0.0000
    39 H10         41.3362   -29.2137    27.2340 H            1 U94201   0.0000
    40 H11         38.1082   -31.1976    26.0986 H            1 U94201   0.0000
    41 H12         39.2111   -31.9309    27.0537 H            1 U94201   0.0000
    42 H13         38.2088   -30.8043    27.6804 H            1 U94201   0.0000
    43 H14         38.9734   -24.4809    31.1703 H            1 U94201   0.0000
    44 H15         40.8597   -23.0560    30.9919 H            1 U94201   0.0000
    45 H16         41.9880   -24.9878    27.5471 H            1 U94201   0.0000
    46 H17         39.9923   -26.3280    27.6103 H            1 U94201   0.0000
    47 H18         41.6129   -21.3223    30.0566 H            1 U94201   0.0000
    48 H19         45.6086   -20.6273    29.1761 H            1 U94201   0.0000
    49 H20         43.8155   -24.1884    28.0603 H            1 U94201   0.0000
@<TRIPOS>BOND
     1    1    2      ar
     2    2    3       1
     3    2    4      ar
     4    3    5       1
     5    3    8       1
     6    5    6       1
     7    5    9       1
     8    6    7       1
     9    6   10       1
    10    7   16       1
    11   10   11      am
    12   11   12       2
    13   11   13       1
    14   13   14       1
    15   14   15       1
    16   16   17      ar
    17   16   21      ar
    18   17   18      ar
    19   18   19      ar
    20   19   20      ar
    21   19   22       1
    22   20   21      ar
    23   22   23      ar
    24   22   27      ar
    25   23   24      ar
    26   24   25      ar
    27   24   29       1
    28   25   26      ar
    29   26   27      ar
    30   26   28       1
    31   27   49       1
    32    3   30       1
    33    5   31       1
    34    6   32       1
    35    7   33       1
    36    7   34       1
    37    8   35       1
    38    9   36       1
    39   10   37       1
    40   13   38       1
    41   13   39       1
    42   15   40       1
    43   15   41       1
    44   15   42       1
    45   17   43       1
    46   18   44       1
    47   20   45       1
    48   21   46       1
    49   23   47       1
    50   25   48       1
@<TRIPOS>SUBSTRUCTURE
     1 U94201      1 GROUP             4 C     U94     0 **** U94 C 201
