@<TRIPOS>MOLECULE
2r0c_FAD_1_ligand
   84    89     1     0     0
SMALL
NO_CHARGES


@<TRIPOS>ATOM
     1 PA          19.3050   -10.0350    15.2300 P.3          1 FAD1430   0.0000
     2 O1A         18.6520   -10.7010    14.0970 O.co2        1 FAD1430   0.0000
     3 O2A         20.2530   -10.8280    16.0690 O.co2        1 FAD1430  -1.0000
     4 O5B         20.0080    -8.7650    14.6430 O.3          1 FAD1430   0.0000
     5 C5B         20.7650    -7.7980    15.4210 C.3          1 FAD1430   0.0000
     6 C4B         21.2750    -6.7980    14.3900 C.3          1 FAD1430   0.0000
     7 O4B         22.0140    -5.8450    15.1980 O.3          1 FAD1430   0.0000
     8 C3B         22.3090    -7.3570    13.3720 C.3          1 FAD1430   0.0000
     9 O3B         21.9170    -7.1470    12.0290 O.3          1 FAD1430   0.0000
    10 C2B         23.5930    -6.6630    13.7500 C.3          1 FAD1430   0.0000
    11 O2B         24.5730    -6.4640    12.7270 O.3          1 FAD1430   0.0000
    12 C1B         23.0920    -5.4120    14.3830 C.3          1 FAD1430   0.0000
    13 N9A         24.0290    -4.7300    15.2630 N.pl3        1 FAD1430   0.0000
    14 C8A         24.5910    -5.1830    16.4310 C.2          1 FAD1430   0.0000
    15 N7A         25.4040    -4.3030    16.9840 N.2          1 FAD1430   0.0000
    16 C5A         25.3710    -3.2340    16.1420 C.ar         1 FAD1430   0.0000
    17 C6A         26.0250    -1.9510    16.1550 C.ar         1 FAD1430   0.0000
    18 N6A         26.8760    -1.6040    17.1540 N.pl3        1 FAD1430   0.0000
    19 N1A         25.7870    -1.0500    15.1400 N.ar         1 FAD1430   0.0000
    20 C2A         24.9390    -1.3950    14.1420 C.ar         1 FAD1430   0.0000
    21 N3A         24.2490    -2.5840    13.9970 N.ar         1 FAD1430   0.0000
    22 C4A         24.5230    -3.4840    15.0700 C.ar         1 FAD1430   0.0000
    23 N1          16.7100   -18.4020    15.1540 N.2          1 FAD1430   0.0000
    24 C2          15.8460   -19.3510    14.7890 C.2          1 FAD1430   0.0000
    25 O2          14.6310   -19.2820    15.0020 O.2          1 FAD1430   0.0000
    26 N3          16.3510   -20.5220    14.1140 N.pl3        1 FAD1430   0.0000
    27 C4          17.7400   -20.7350    13.8030 C.2          1 FAD1430   0.0000
    28 O4          18.0840   -21.7830    13.2180 O.2          1 FAD1430   0.0000
    29 C4X         18.6220   -19.7010    14.2070 C.2          1 FAD1430   0.0000
    30 N5          20.0340   -19.8190    13.9450 N.2          1 FAD1430   0.0000
    31 C5X         20.9010   -18.7860    14.3670 C.ar         1 FAD1430   0.0000
    32 C6          22.3000   -18.8970    14.1210 C.ar         1 FAD1430   0.0000
    33 C7          23.2240   -17.9020    14.5260 C.ar         1 FAD1430   0.0000
    34 C7M         24.7560   -18.0870    14.2290 C.3          1 FAD1430   0.0000
    35 C8          22.7400   -16.7030    15.2240 C.ar         1 FAD1430   0.0000
    36 C8M         23.6220   -15.5720    15.7100 C.3          1 FAD1430   0.0000
    37 C9          21.3150   -16.5980    15.4660 C.ar         1 FAD1430   0.0000
    38 C9A         20.3890   -17.5730    15.0730 C.ar         1 FAD1430   0.0000
    39 N10         18.9010   -17.5130    15.3070 N.pl3        1 FAD1430   0.0000
    40 C10         18.0460   -18.5360    14.8920 C.2          1 FAD1430   0.0000
    41 C1'         18.3170   -16.3310    16.0100 C.3          1 FAD1430   0.0000
    42 C2'         17.5450   -15.3550    15.0630 C.3          1 FAD1430   0.0000
    43 O2'         18.4340   -14.8890    14.0650 O.3          1 FAD1430   0.0000
    44 C3'         16.9900   -14.2160    15.8840 C.3          1 FAD1430   0.0000
    45 O3'         16.0950   -14.7470    16.8630 O.3          1 FAD1430   0.0000
    46 C4'         16.2110   -13.2120    15.0800 C.3          1 FAD1430   0.0000
    47 O4'         16.5860   -12.6900    13.8210 O.3          1 FAD1430   0.0000
    48 C5'         15.8370   -12.1920    16.1150 C.3          1 FAD1430   0.0000
    49 O5'         16.1490   -11.0150    15.5790 O.3          1 FAD1430   0.0000
    50 P           16.5940    -9.6890    16.2910 P.3          1 FAD1430   0.0000
    51 O1P         15.9730    -8.8800    15.2120 O.co2        1 FAD1430   0.0000
    52 O2P         16.1080    -9.3270    17.6640 O.co2        1 FAD1430  -1.0000
    53 O3P         18.1880    -9.5830    16.2410 O.3          1 FAD1430   0.0000
    54 H5B1        21.5279    -8.2416    15.8913 H            1 FAD1430   0.0000
    55 H5B2        20.1774    -7.3459    16.0920 H            1 FAD1430   0.0000
    56 H4B         20.5144    -6.3522    13.9182 H            1 FAD1430   0.0000
    57 H3B         22.4156    -8.3391    13.5270 H            1 FAD1430   0.0000
    58 H5          22.2723    -6.2678    11.7116 H            1 FAD1430   0.0000
    59 H2B         24.0230    -7.2075    14.4701 H            1 FAD1430   0.0000
    60 H7          24.1817    -5.9070    11.9944 H            1 FAD1430   0.0000
    61 H1B         22.7598    -4.7818    13.6812 H            1 FAD1430   0.0000
    62 H8A         24.4040    -6.0845    16.8213 H            1 FAD1430   0.0000
    63 H6A1        27.3199    -0.7080    17.1441 H            1 FAD1430   0.0000
    64 H6A2        27.0591    -2.2444    17.8999 H            1 FAD1430   0.0000
    65 H2A         24.7954    -0.7104    13.4273 H            1 FAD1430   0.0000
    66 H13         15.6961   -21.2286    13.8460 H            1 FAD1430   0.0000
    67 H14         22.6424   -19.7070    13.6450 H            1 FAD1430   0.0000
    68 H7M1        25.2611   -17.2984    14.5796 H            1 FAD1430   0.0000
    69 H7M2        25.0842   -18.9188    14.6765 H            1 FAD1430   0.0000
    70 H7M3        24.8976   -18.1615    13.2419 H            1 FAD1430   0.0000
    71 H8M1        23.0572   -14.8752    16.1522 H            1 FAD1430   0.0000
    72 H8M2        24.2879   -15.9270    16.3661 H            1 FAD1430   0.0000
    73 H8M3        24.1033   -15.1670    14.9326 H            1 FAD1430   0.0000
    74 H21         20.9743   -15.7856    15.9391 H            1 FAD1430   0.0000
    75 H1'1        19.0603   -15.8247    16.4473 H            1 FAD1430   0.0000
    76 H1'2        17.6823   -16.6610    16.7087 H            1 FAD1430   0.0000
    77 H2'         16.7901   -15.8461    14.6284 H            1 FAD1430   0.0000
    78 H25         17.9500   -14.2633    13.4532 H            1 FAD1430   0.0000
    79 H3'         17.7432   -13.7499    16.3481 H            1 FAD1430   0.0000
    80 H27         16.4240   -14.5120    17.7776 H            1 FAD1430   0.0000
    81 H4'         15.3484   -13.6815    14.8914 H            1 FAD1430   0.0000
    82 H29         17.1363   -11.8655    13.9525 H            1 FAD1430   0.0000
    83 H5'1        16.3553   -12.3415    16.9570 H            1 FAD1430   0.0000
    84 H5'2        14.8580   -12.2376    16.3136 H            1 FAD1430   0.0000
@<TRIPOS>BOND
     1    1    2      ar
     2    1    3      ar
     3    1    4       1
     4    1   53       1
     5    4    5       1
     6    5    6       1
     7    6    7       1
     8    6    8       1
     9    7   12       1
    10    8    9       1
    11    8   10       1
    12   10   11       1
    13   10   12       1
    14   12   13       1
    15   13   14       1
    16   13   22       1
    17   14   15       2
    18   15   16       1
    19   16   17      ar
    20   16   22      ar
    21   17   18       1
    22   17   19      ar
    23   19   20      ar
    24   20   21      ar
    25   21   22      ar
    26   23   24       1
    27   23   40       2
    28   24   25       2
    29   24   26       1
    30   26   27       1
    31   27   28       2
    32   27   29       1
    33   29   30       2
    34   29   40       1
    35   30   31       1
    36   31   32      ar
    37   31   38      ar
    38   32   33      ar
    39   33   34       1
    40   33   35      ar
    41   35   36       1
    42   35   37      ar
    43   37   38      ar
    44   38   39       1
    45   39   40       1
    46   39   41       1
    47   41   42       1
    48   42   43       1
    49   42   44       1
    50   44   45       1
    51   44   46       1
    52   46   47       1
    53   46   48       1
    54   48   49       1
    55   49   50       1
    56   50   51      ar
    57   50   52      ar
    58   50   53       1
    59   48   84       1
    60    5   54       1
    61    5   55       1
    62    6   56       1
    63    8   57       1
    64    9   58       1
    65   10   59       1
    66   11   60       1
    67   12   61       1
    68   14   62       1
    69   18   63       1
    70   18   64       1
    71   20   65       1
    72   26   66       1
    73   32   67       1
    74   34   68       1
    75   34   69       1
    76   34   70       1
    77   36   71       1
    78   36   72       1
    79   36   73       1
    80   37   74       1
    81   41   75       1
    82   41   76       1
    83   42   77       1
    84   43   78       1
    85   44   79       1
    86   45   80       1
    87   46   81       1
    88   47   82       1
    89   48   83       1
@<TRIPOS>SUBSTRUCTURE
     1 FAD1430     1 GROUP             4 A     FAD     0 **** FAD A1430
