@<TRIPOS>MOLECULE
5it1_2OH_2_ligand
   33    34     1     0     0
SMALL
NO_CHARGES


@<TRIPOS>ATOM
     1 O2          54.5410    -6.7650    56.4100 O.3          1 2OH402   0.0000
     2 C13         55.4530    -6.2380    55.5280 C.ar         1 2OH402   0.0000
     3 C12         56.1660    -7.0240    54.6090 C.ar         1 2OH402   0.0000
     4 C11         57.0900    -6.4230    53.7500 C.ar         1 2OH402   0.0000
     5 C14         55.6510    -4.8700    55.5140 C.ar         1 2OH402   0.0000
     6 C15         56.5340    -4.2850    54.6510 C.ar         1 2OH402   0.0000
     7 C4          57.2880    -5.0500    53.7770 C.ar         1 2OH402   0.0000
     8 C2          58.2220    -4.3500    52.8320 C.3          1 2OH402   0.0000
     9 C3          59.0080    -5.3180    51.9490 C.3          1 2OH402   0.0000
    10 C5          59.2750    -3.6000    53.5800 C.3          1 2OH402   0.0000
    11 C1          57.4120    -3.4350    51.9120 C.ar         1 2OH402   0.0000
    12 C10         56.3860    -3.9700    51.1380 C.ar         1 2OH402   0.0000
    13 C9          55.6390    -3.2080    50.2290 C.ar         1 2OH402   0.0000
    14 C6          57.6690    -2.0680    51.7810 C.ar         1 2OH402   0.0000
    15 C7          56.9150    -1.2960    50.8900 C.ar         1 2OH402   0.0000
    16 C8          55.9110    -1.8500    50.1290 C.ar         1 2OH402   0.0000
    17 O1          55.2030    -1.0740    49.2930 O.3          1 2OH402   0.0000
    18 H1          54.0568    -6.1649    57.0468 H            1 2OH402   0.0000
    19 H2          56.0131    -8.0114    54.5692 H            1 2OH402   0.0000
    20 H3          57.6127    -6.9870    53.1107 H            1 2OH402   0.0000
    21 H4          55.1361    -4.2953    56.1501 H            1 2OH402   0.0000
    22 H5          56.6373    -3.2903    54.6505 H            1 2OH402   0.0000
    23 H6          59.6114    -4.8006    51.3422 H            1 2OH402   0.0000
    24 H7          59.5554    -5.9251    52.5250 H            1 2OH402   0.0000
    25 H8          58.3716    -5.8618    51.4019 H            1 2OH402   0.0000
    26 H9          59.8835    -3.1433    52.9310 H            1 2OH402   0.0000
    27 H10         58.8430    -2.9172    54.1691 H            1 2OH402   0.0000
    28 H11         59.8036    -4.2374    54.1406 H            1 2OH402   0.0000
    29 H12         56.1722    -4.9421    51.2349 H            1 2OH402   0.0000
    30 H13         54.9285    -3.6315    49.6670 H            1 2OH402   0.0000
    31 H14         58.3920    -1.6411    52.3241 H            1 2OH402   0.0000
    32 H15         57.1103    -0.3190    50.8043 H            1 2OH402   0.0000
    33 H16         55.4046    -0.0968    49.2264 H            1 2OH402   0.0000
@<TRIPOS>BOND
     1    1    2       1
     2    2    3      ar
     3    2    5      ar
     4    3    4      ar
     5    4    7      ar
     6    5    6      ar
     7    6    7      ar
     8    7    8       1
     9    8    9       1
    10    8   10       1
    11    8   11       1
    12   11   12      ar
    13   11   14      ar
    14   12   13      ar
    15   13   16      ar
    16   14   15      ar
    17   15   16      ar
    18   16   17       1
    19    1   18       1
    20    3   19       1
    21    4   20       1
    22    5   21       1
    23    6   22       1
    24    9   23       1
    25    9   24       1
    26    9   25       1
    27   10   26       1
    28   10   27       1
    29   10   28       1
    30   12   29       1
    31   13   30       1
    32   14   31       1
    33   15   32       1
    34   17   33       1
@<TRIPOS>SUBSTRUCTURE
     1 2OH402      1 GROUP             4 B     2OH     0 **** 2OH B 402
