@<TRIPOS>MOLECULE
./coach420/2e6u/ligand.pdb
 48 48 0 0 0
SMALL
GASTEIGER

@<TRIPOS>ATOM
      1 CA         22.2750   10.7000   87.3860 Ca    201  CA201       0.0000
      2  C2A        9.2300   12.6870   92.8800 C.3   200  COA200      0.0000
      3  N3A        8.4940   13.4790   93.8480 N.pl3 200  COA200      0.0000
      4  C4A        9.1330   13.9720   94.9370 C.ar  200  COA200      0.0000
      5  C5A       10.4940   13.7420   95.1730 C.ar  200  COA200      0.0000
      6  C6A       11.2350   12.9460   94.2930 C.3   200  COA200      0.0000
      7  N6A       12.5700   12.6340   94.4660 N.3   200  COA200      0.0000
      8  N7A       10.7860   14.3760   96.3390 N.ar  200  COA200      0.0000
      9  C8A        9.6750   14.9830   96.8020 C.ar  200  COA200      0.0000
     10  N9A        8.6740   14.7340   95.9210 N.ar  200  COA200      0.0000
     11  C1B        7.2810   15.1600   96.0420 C.3   200  COA200      0.0000
     12  C2B        6.7580   14.9120   97.4750 C.3   200  COA200      0.0000
     13  O2B        6.2970   13.5680   97.6820 O.3   200  COA200      0.0000
     14  C3B        5.6900   15.9900   97.6410 C.3   200  COA200      0.0000
     15  O3B        4.3510   15.4960   97.5810 O.3   200  COA200      0.0000
     16  P3B        3.5810   15.0360   98.9140 P.3   200  COA200      0.0000
     17  O7A        4.5660   14.1100   99.6220 O.3   200  COA200      0.0000
     18  O8A        3.3260   16.3250   99.6590 O.3   200  COA200      0.0000
     19  O9A        2.2980   14.3820   98.4400 O.2   200  COA200      0.0000
     20  C4B        5.9410   16.9380   96.4800 C.3   200  COA200      0.0000
     21  O4B        7.1680   16.5450   95.9180 O.3   200  COA200      0.0000
     22  C5B        6.1230   18.3990   96.8810 C.3   200  COA200      0.0000
     23  O5B        7.0020   18.4440   98.0110 O.3   200  COA200      0.0000
     24  P1A        7.8730   19.7710   98.2530 P.3   200  COA200      0.0000
     25  O1A        8.7760   19.9340   97.0660 O.2   200  COA200     -0.5000
     26  O2A        8.4510   19.5420   99.6420 O.3   200  COA200     -0.5000
     27  O3A        6.7150   20.8550   98.2890 O.3   200  COA200      0.0000
     28  P2A        6.8200   22.4620   98.4080 P.3   200  COA200      0.0000
     29  O4A        8.2190   22.7750   98.8280 O.2   200  COA200     -0.5000
     30  O5A        5.5820   22.8770   99.1540 O.3   200  COA200     -0.5000
     31  O6A        6.6060   22.9230   96.9000 O.3   200  COA200      0.0000
     32  CBP        7.0040   22.6340   94.5590 C.3   200  COA200      0.0000
     33  CCP        7.6570   22.8280   95.9260 C.3   200  COA200      0.0000
     34  CDP        6.2570   21.2950   94.4890 C.3   200  COA200      0.0000
     35  CEP        8.1320   22.5830   93.5170 C.3   200  COA200      0.0000
     36  CAP        5.9880   23.7440   94.2950 C.3   200  COA200      0.0000
     37  OAP        6.6060   25.0600   94.2570 O.3   200  COA200      0.0000
     38  C9P        5.3040   23.3570   92.9800 C.3   200  COA200      0.0000
     39  O9P        3.9410   23.0720   93.2130 O.3   200  COA200      0.0000
     40  N8P        5.5420   24.2890   91.9020 N.3   200  COA200      0.0000
     41  C7P        4.7450   24.2850   90.6950 C.3   200  COA200      0.0000
     42  C6P        3.6890   25.3560   90.9270 C.3   200  COA200      0.0000
     43  C5P        2.8740   25.8160   89.7150 C.3   200  COA200      0.0000
     44  O5P        3.3770   25.4430   88.4490 O.3   200  COA200      0.0000
     45  N4P        1.4800   25.5360   89.8160 N.3   200  COA200      0.0000
     46  C3P        0.6470   25.7340   88.6510 C.3   200  COA200      0.0000
     47  C2P       -0.6500   26.4030   89.0450 C.3   200  COA200      0.0000
     48  S1P       -1.4190   27.0430   87.5370 S.3   200  COA200      0.0000
@<TRIPOS>BOND
     1     2     3    1
     2     3     4    1
     3     4     5   ar
     4     4    10   ar
     5     5     6    1
     6     5     8   ar
     7     6     7    1
     8     8     9   ar
     9     9    10   ar
    10    10    11    1
    11    11    21    1
    12    11    12    1
    13    12    14    1
    14    12    13    1
    15    14    20    1
    16    14    15    1
    17    15    16    1
    18    16    19    2
    19    16    17    1
    20    16    18    1
    21    20    21    1
    22    20    22    1
    23    22    23    1
    24    23    24    1
    25    24    25    2
    26    24    27    1
    27    24    26    1
    28    27    28    1
    29    28    31    1
    30    28    29    2
    31    28    30    1
    32    31    33    1
    33    32    35    1
    34    32    36    1
    35    32    34    1
    36    32    33    1
    37    36    38    1
    38    36    37    1
    39    38    40    1
    40    38    39    1
    41    40    41    1
    42    41    42    1
    43    42    43    1
    44    43    44    1
    45    43    45    1
    46    45    46    1
    47    46    47    1
    48    47    48    1
