@<TRIPOS>MOLECULE
3w3z_GTP_1_ligand
   44    46     1     0     0
SMALL
NO_CHARGES


@<TRIPOS>ATOM
     1 PG         -24.6870    -3.8900   -10.8080 P.3          1 GTP202   0.0000
     2 O1G        -23.6230    -4.9470   -11.1020 O.co2        1 GTP202   0.0000
     3 O2G        -25.7530    -3.9000   -11.8480 O.co2        1 GTP202  -1.0000
     4 O3G        -23.9690    -2.6010   -10.5210 O.co2        1 GTP202  -1.0000
     5 O3B        -25.4440    -4.3810    -9.5180 O.3          1 GTP202   0.0000
     6 PB         -26.8380    -3.8800    -8.8870 P.3          1 GTP202   0.0000
     7 O1B        -26.3820    -2.9200    -7.7780 O.co2        1 GTP202   0.0000
     8 O2B        -27.8480    -3.3400    -9.9030 O.co2        1 GTP202  -1.0000
     9 O3A        -27.3900    -5.1150    -8.0380 O.3          1 GTP202   0.0000
    10 PA         -28.7740    -5.7800    -8.2840 P.3          1 GTP202   0.0000
    11 O1A        -29.9250    -4.8790    -8.0170 O.co2        1 GTP202   0.0000
    12 O2A        -28.8370    -6.4380    -9.6340 O.co2        1 GTP202  -1.0000
    13 O5'        -29.0300    -6.6930    -6.9860 O.3          1 GTP202   0.0000
    14 C5'        -28.0850    -7.5840    -6.4050 C.3          1 GTP202   0.0000
    15 C4'        -28.7130    -8.7270    -5.5760 C.3          1 GTP202   0.0000
    16 O4'        -29.1140    -8.2730    -4.2770 O.3          1 GTP202   0.0000
    17 C3'        -29.9090    -9.4070    -6.1740 C.3          1 GTP202   0.0000
    18 O3'        -29.8090   -10.7940    -5.9280 O.3          1 GTP202   0.0000
    19 C2'        -31.0490    -8.8350    -5.3710 C.3          1 GTP202   0.0000
    20 O2'        -32.1760    -9.7070    -5.3000 O.3          1 GTP202   0.0000
    21 C1'        -30.4680    -8.5740    -3.9990 C.3          1 GTP202   0.0000
    22 N9         -31.0240    -7.4010    -3.2360 N.pl3        1 GTP202   0.0000
    23 C8         -31.1610    -6.1000    -3.6730 C.2          1 GTP202   0.0000
    24 N7         -31.6760    -5.3030    -2.7040 N.2          1 GTP202   0.0000
    25 C5         -31.8820    -6.0810    -1.6240 C.2          1 GTP202   0.0000
    26 C6         -32.3980    -5.8780    -0.2600 C.2          1 GTP202   0.0000
    27 O6         -32.7820    -4.7360     0.0710 O.2          1 GTP202   0.0000
    28 N1         -32.4370    -6.9220     0.5840 N.pl3        1 GTP202   0.0000
    29 C2         -32.0100    -8.1320     0.2320 C.2          1 GTP202   0.0000
    30 N2         -32.0970    -9.1240     1.1490 N.pl3        1 GTP202   0.0000
    31 N3         -31.5450    -8.4000    -1.0130 N.2          1 GTP202   0.0000
    32 C4         -31.4370    -7.4430    -1.9610 C.2          1 GTP202   0.0000
    33 H5'1       -27.4845    -7.0556    -5.8049 H            1 GTP202   0.0000
    34 H5'2       -27.5453    -7.9916    -7.1416 H            1 GTP202   0.0000
    35 H4'        -28.0076    -9.4236    -5.4447 H            1 GTP202   0.0000
    36 H3'        -30.0027    -9.2071    -7.1493 H            1 GTP202   0.0000
    37 H5         -30.6011   -11.2604    -6.3219 H            1 GTP202   0.0000
    38 H2'        -31.3322    -7.9663    -5.7773 H            1 GTP202   0.0000
    39 H7         -32.7924    -9.5180    -6.0644 H            1 GTP202   0.0000
    40 H1'        -30.5257    -9.4019    -3.4411 H            1 GTP202   0.0000
    41 H9         -30.9121    -5.7843    -4.5886 H            1 GTP202   0.0000
    42 H10        -32.7985    -6.7856     1.5063 H            1 GTP202   0.0000
    43 H11        -31.7855   -10.0461     0.9192 H            1 GTP202   0.0000
    44 H12        -32.4727    -8.9347     2.0562 H            1 GTP202   0.0000
@<TRIPOS>BOND
     1    1    2      ar
     2    1    3      ar
     3    1    4      ar
     4    1    5       1
     5    5    6       1
     6    6    7      ar
     7    6    8      ar
     8    6    9       1
     9    9   10       1
    10   10   11      ar
    11   10   12      ar
    12   10   13       1
    13   13   14       1
    14   14   15       1
    15   15   16       1
    16   15   17       1
    17   16   21       1
    18   17   18       1
    19   17   19       1
    20   19   20       1
    21   19   21       1
    22   21   22       1
    23   22   23       1
    24   22   32       1
    25   23   24       2
    26   24   25       1
    27   25   26       1
    28   25   32       2
    29   26   27       2
    30   26   28       1
    31   28   29       1
    32   29   30       1
    33   29   31       2
    34   31   32       1
    35   30   44       1
    36   30   43       1
    37   28   42       1
    38   23   41       1
    39   14   33       1
    40   14   34       1
    41   15   35       1
    42   17   36       1
    43   18   37       1
    44   19   38       1
    45   20   39       1
    46   21   40       1
@<TRIPOS>SUBSTRUCTURE
     1 GTP202      1 GROUP             4 B     GTP     0 **** GTP B 202
