@<TRIPOS>MOLECULE
4ua3_COA_1_ligand
   80    82     1     0     0
SMALL
NO_CHARGES


@<TRIPOS>ATOM
     1 N1A         33.6420    14.4560    20.0600 N.ar         1 COA301   0.0000
     2 C2A         33.3410    13.1890    19.7980 C.ar         1 COA301   0.0000
     3 N3A         33.6550    12.5900    18.6090 N.ar         1 COA301   0.0000
     4 C4A         34.3150    13.2990    17.6640 C.ar         1 COA301   0.0000
     5 C5A         34.6460    14.6520    17.8960 C.ar         1 COA301   0.0000
     6 C6A         34.2810    15.2460    19.1850 C.ar         1 COA301   0.0000
     7 N6A         34.5790    16.5840    19.4780 N.pl3        1 COA301   0.0000
     8 N7A         35.2920    15.1340    16.7480 N.2          1 COA301   0.0000
     9 C8A         35.3250    14.1000    15.8450 C.2          1 COA301   0.0000
    10 N9A         34.7560    13.0080    16.3340 N.pl3        1 COA301   0.0000
    11 C1B         34.6560    11.7460    15.6800 C.3          1 COA301   0.0000
    12 C2B         33.5260    11.6190    14.7050 C.3          1 COA301   0.0000
    13 O2B         32.4910    10.9250    15.3300 O.3          1 COA301   0.0000
    14 C3B         34.0210    10.7460    13.6400 C.3          1 COA301   0.0000
    15 O3B         33.8380     9.3860    14.0810 O.3          1 COA301   0.0000
    16 P3B         32.9500     8.4000    13.3420 P.3          1 COA301   0.0000
    17 O7A         33.2430     8.3060    11.8800 O.co2        1 COA301   0.0000
    18 O8A         33.3030     7.0470    13.7810 O.co2        1 COA301  -1.0000
    19 O9A         31.4360     8.7360    13.6230 O.co2        1 COA301  -1.0000
    20 C4B         35.4640    10.9210    13.6320 C.3          1 COA301   0.0000
    21 O4B         35.8430    11.5960    14.8710 O.3          1 COA301   0.0000
    22 C5B         35.8850    11.7250    12.4290 C.3          1 COA301   0.0000
    23 O5B         36.4520    12.9330    12.9490 O.3          1 COA301   0.0000
    24 P1A         36.9630    14.1220    12.0080 P.3          1 COA301   0.0000
    25 O1A         35.8410    14.6600    11.1720 O.co2        1 COA301   0.0000
    26 O2A         38.0410    13.7500    11.0750 O.co2        1 COA301  -1.0000
    27 O3A         37.4090    15.2460    13.0610 O.3          1 COA301   0.0000
    28 P2A         38.1980    16.6060    12.7590 P.3          1 COA301   0.0000
    29 O4A         38.0620    16.9780    11.3210 O.co2        1 COA301   0.0000
    30 O5A         37.5410    17.7120    13.4800 O.co2        1 COA301  -1.0000
    31 O6A         39.7000    16.4220    13.1630 O.3          1 COA301   0.0000
    32 CBP         41.1300    17.4270    14.8040 C.3          1 COA301   0.0000
    33 CCP         40.0690    16.3390    14.5480 C.3          1 COA301   0.0000
    34 CDP         41.4220    17.5460    16.3080 C.3          1 COA301   0.0000
    35 CEP         42.4400    17.0550    14.0260 C.3          1 COA301   0.0000
    36 CAP         40.5570    18.7680    14.2750 C.3          1 COA301   0.0000
    37 OAP         39.3980    19.1090    14.9820 O.3          1 COA301   0.0000
    38 C9P         41.5790    19.9070    14.3220 C.2          1 COA301   0.0000
    39 O9P         42.4240    20.0660    13.4250 O.2          1 COA301   0.0000
    40 N8P         41.5410    20.8490    15.4720 N.am         1 COA301   0.0000
    41 C7P         42.4500    21.9210    15.5460 C.3          1 COA301   0.0000
    42 C6P         43.8100    21.4350    15.9940 C.3          1 COA301   0.0000
    43 C5P         43.9180    20.5970    17.2570 C.2          1 COA301   0.0000
    44 O5P         43.2520    20.8700    18.2920 O.2          1 COA301   0.0000
    45 N4P         44.8030    19.4770    17.2360 N.am         1 COA301   0.0000
    46 C3P         44.9360    18.6610    18.4330 C.3          1 COA301   0.0000
    47 C2P         46.1780    19.1280    19.2110 C.3          1 COA301   0.0000
    48 S1P         47.6880    18.7760    18.3080 S.3          1 COA301   0.0000
    49 H2A         32.8669    12.6528    20.4964 H            1 COA301   0.0000
    50 H6A1        35.0567    17.1488    18.8051 H            1 COA301   0.0000
    51 H6A2        34.3138    16.9738    20.3599 H            1 COA301   0.0000
    52 H8A         35.7282    14.1633    14.9321 H            1 COA301   0.0000
    53 H1B         34.6081    11.0120    16.3574 H            1 COA301   0.0000
    54 H2B         33.2275    12.5073    14.3561 H            1 COA301   0.0000
    55 H7          31.9731    10.4116    14.6458 H            1 COA301   0.0000
    56 H3B         33.5984    10.9310    12.7528 H            1 COA301   0.0000
    57 H4B         35.9040    10.0236    13.5984 H            1 COA301   0.0000
    58 H5B1        35.0939    11.9309    11.8531 H            1 COA301   0.0000
    59 H5B2        36.5647    11.2227    11.8945 H            1 COA301   0.0000
    60 HCP1        40.4495    15.4360    14.7475 H            1 COA301   0.0000
    61 HCP2        39.2686    16.4986    15.1258 H            1 COA301   0.0000
    62 HDP1        42.1112    18.2547    16.4587 H            1 COA301   0.0000
    63 HDP2        40.5818    17.7897    16.7924 H            1 COA301   0.0000
    64 HDP3        41.7630    16.6710    16.6516 H            1 COA301   0.0000
    65 HEP1        43.1340    17.7567    14.1871 H            1 COA301   0.0000
    66 HEP2        42.7790    16.1709    14.3476 H            1 COA301   0.0000
    67 HEP3        42.2423    17.0002    13.0473 H            1 COA301   0.0000
    68 HAP         40.2994    18.6312    13.3185 H            1 COA301   0.0000
    69 H21         38.6002    18.7193    14.5220 H            1 COA301   0.0000
    70 H8P         40.8651    20.7200    16.1976 H            1 COA301   0.0000
    71 H7P1        42.1099    22.5958    16.2010 H            1 COA301   0.0000
    72 H7P2        42.5330    22.3445    14.6439 H            1 COA301   0.0000
    73 H6P1        44.3793    22.2455    16.1314 H            1 COA301   0.0000
    74 H6P2        44.1853    20.8869    15.2466 H            1 COA301   0.0000
    75 H4P         45.3236    19.2567    16.4111 H            1 COA301   0.0000
    76 H3P1        45.0413    17.7004    18.1757 H            1 COA301   0.0000
    77 H3P2        44.1218    18.7658    19.0041 H            1 COA301   0.0000
    78 H2P1        46.2075    18.6543    20.0912 H            1 COA301   0.0000
    79 H2P2        46.1135    20.1140    19.3651 H            1 COA301   0.0000
    80 H1P         48.1747    19.6305    18.1265 H            1 COA301   0.0000
@<TRIPOS>BOND
     1    1    2      ar
     2    1    6      ar
     3    2    3      ar
     4    3    4      ar
     5    4    5      ar
     6    4   10       1
     7    5    6      ar
     8    5    8       1
     9    6    7       1
    10    8    9       2
    11    9   10       1
    12   10   11       1
    13   11   12       1
    14   11   21       1
    15   12   13       1
    16   12   14       1
    17   14   15       1
    18   14   20       1
    19   15   16       1
    20   16   17      ar
    21   16   18      ar
    22   16   19      ar
    23   20   21       1
    24   20   22       1
    25   22   23       1
    26   23   24       1
    27   24   25      ar
    28   24   26      ar
    29   24   27       1
    30   27   28       1
    31   28   29      ar
    32   28   30      ar
    33   28   31       1
    34   31   33       1
    35   32   33       1
    36   32   34       1
    37   32   35       1
    38   32   36       1
    39   36   37       1
    40   36   38       1
    41   38   39       2
    42   38   40      am
    43   40   41       1
    44   41   42       1
    45   42   43       1
    46   43   44       2
    47   43   45      am
    48   45   46       1
    49   46   47       1
    50   47   48       1
    51    2   49       1
    52    7   50       1
    53    7   51       1
    54    9   52       1
    55   11   53       1
    56   12   54       1
    57   13   55       1
    58   14   56       1
    59   48   80       1
    60   47   79       1
    61   20   57       1
    62   22   58       1
    63   22   59       1
    64   47   78       1
    65   46   77       1
    66   33   60       1
    67   33   61       1
    68   34   62       1
    69   34   63       1
    70   34   64       1
    71   35   65       1
    72   35   66       1
    73   35   67       1
    74   36   68       1
    75   37   69       1
    76   40   70       1
    77   41   71       1
    78   41   72       1
    79   42   73       1
    80   42   74       1
    81   45   75       1
    82   46   76       1
@<TRIPOS>SUBSTRUCTURE
     1 COA301      1 GROUP             4 A     COA     0 **** COA A 301
