@<TRIPOS>MOLECULE
3ele_PLP_1_ligand
   25    25     1     0     0
SMALL
NO_CHARGES


@<TRIPOS>ATOM
     1 N1          70.5360    80.6320   -11.6200 N.ar         1 PLP500   1.0000
     2 C2          69.4230    81.2160   -12.2290 C.ar         1 PLP500   0.0000
     3 C2A         68.5980    82.1940   -11.4560 C.3          1 PLP500   0.0000
     4 C3          69.1010    80.9090   -13.5670 C.ar         1 PLP500   0.0000
     5 O3          68.0180    81.4930   -14.1790 O.3          1 PLP500   0.0000
     6 C4          69.8780    79.9750   -14.2910 C.ar         1 PLP500   0.0000
     7 C4A         69.2230    79.3750   -15.5220 C.2          1 PLP500   0.0000
     8 O4A         68.4890    78.3920   -15.4120 O.2          1 PLP500   0.0000
     9 C5          71.0120    79.3930   -13.6460 C.ar         1 PLP500   0.0000
    10 C6          71.3290    79.7270   -12.3060 C.ar         1 PLP500   0.0000
    11 C5A         71.8950    78.3590   -14.3130 C.3          1 PLP500   0.0000
    12 O4P         72.9860    78.9040   -14.9860 O.3          1 PLP500   0.0000
    13 P           74.0620    77.8770   -15.6070 P.3          1 PLP500   0.0000
    14 O1P         75.4370    78.4760   -15.5310 O.co2        1 PLP500   0.0000
    15 O2P         73.7640    77.6790   -17.0650 O.co2        1 PLP500  -1.0000
    16 O3P         74.0490    76.5570   -14.9080 O.co2        1 PLP500  -1.0000
    17 H2A1        67.8442    82.5189   -12.0271 H            1 PLP500   0.0000
    18 H2A2        68.2299    81.7481   -10.6401 H            1 PLP500   0.0000
    19 H2A3        69.1681    82.9692   -11.1837 H            1 PLP500   0.0000
    20 H4          67.7987    81.2680   -15.1284 H            1 PLP500   0.0000
    21 H4A         69.3875    79.7779   -16.4224 H            1 PLP500   0.0000
    22 H6          72.1208    79.3117   -11.8581 H            1 PLP500   0.0000
    23 H5A1        71.3414    77.8483   -14.9708 H            1 PLP500   0.0000
    24 H5A2        72.2371    77.7354   -13.6101 H            1 PLP500   0.0000
    25 H9          70.7635    80.8705   -10.6759 H            1 PLP500   0.0000
@<TRIPOS>BOND
     1    1    2      ar
     2    1   10      ar
     3    2    3       1
     4    2    4      ar
     5    4    5       1
     6    4    6      ar
     7    6    7       1
     8    6    9      ar
     9    7    8       2
    10    9   10      ar
    11    9   11       1
    12   11   12       1
    13   12   13       1
    14   13   14      ar
    15   13   15      ar
    16   13   16      ar
    17    3   17       1
    18    3   18       1
    19    3   19       1
    20    5   20       1
    21    7   21       1
    22   10   22       1
    23   11   23       1
    24   11   24       1
    25    1   25       1
@<TRIPOS>SUBSTRUCTURE
     1 PLP500      1 GROUP             4 A     PLP     0 **** PLP A 500
