@<TRIPOS>MOLECULE
1yb5_NAP_2_ligand
   73    77     1     0     0
SMALL
NO_CHARGES


@<TRIPOS>ATOM
     1 PA           5.7140   -30.4930    31.0130 P.3          1 NAP802   0.0000
     2 O1A          6.6930   -31.4070    31.6870 O.co2        1 NAP802   0.0000
     3 O2A          4.2910   -30.8360    31.2350 O.co2        1 NAP802  -1.0000
     4 O5B          6.0350   -30.5590    29.4210 O.3          1 NAP802   0.0000
     5 C5B          7.3670   -30.4920    28.9330 C.3          1 NAP802   0.0000
     6 C4B          7.2660   -30.2610    27.4270 C.3          1 NAP802   0.0000
     7 O4B          8.5900   -30.1220    26.9580 O.3          1 NAP802   0.0000
     8 C3B          6.6620   -31.4890    26.7330 C.3          1 NAP802   0.0000
     9 O3B          5.6870   -31.0590    25.8120 O.3          1 NAP802   0.0000
    10 C2B          7.8730   -32.0820    26.0450 C.3          1 NAP802   0.0000
    11 O2B          7.5610   -32.8500    24.8920 O.3          1 NAP802   0.0000
    12 C1B          8.6420   -30.7850    25.7480 C.3          1 NAP802   0.0000
    13 N9A          9.9530   -31.0500    25.1380 N.pl3        1 NAP802   0.0000
    14 C8A         10.8100   -32.1160    25.3500 C.2          1 NAP802   0.0000
    15 N7A         11.8630   -31.9460    24.5040 N.2          1 NAP802   0.0000
    16 C5A         11.6590   -30.8170    23.7630 C.ar         1 NAP802   0.0000
    17 C6A         12.3820   -30.1620    22.7420 C.ar         1 NAP802   0.0000
    18 N6A         13.5360   -30.6720    22.2770 N.pl3        1 NAP802   0.0000
    19 N1A         11.8680   -29.0050    22.1810 N.ar         1 NAP802   0.0000
    20 C2A         10.6730   -28.4560    22.6210 C.ar         1 NAP802   0.0000
    21 N3A          9.9680   -29.1020    23.6160 N.ar         1 NAP802   0.0000
    22 C4A         10.4610   -30.2520    24.1740 C.ar         1 NAP802   0.0000
    23 O3           6.0660   -29.0010    31.4610 O.3          1 NAP802   0.0000
    24 PN           5.1030   -27.7240    31.4040 P.3          1 NAP802   0.0000
    25 O1N          4.3600   -27.7370    30.1370 O.co2        1 NAP802   0.0000
    26 O2N          4.3320   -27.6900    32.7010 O.co2        1 NAP802  -1.0000
    27 O5D          6.2420   -26.5970    31.4120 O.3          1 NAP802   0.0000
    28 C5D          7.0960   -26.4280    30.2690 C.3          1 NAP802   0.0000
    29 C4D          8.3190   -25.5910    30.6570 C.3          1 NAP802   0.0000
    30 O4D          7.9310   -24.2560    30.9760 O.3          1 NAP802   0.0000
    31 C3D          9.0840   -26.1280    31.8840 C.3          1 NAP802   0.0000
    32 O3D         10.4750   -25.9300    31.6850 O.3          1 NAP802   0.0000
    33 C2D          8.6020   -25.2330    33.0180 C.3          1 NAP802   0.0000
    34 O2D          9.5340   -25.1500    34.0790 O.3          1 NAP802   0.0000
    35 C1D          8.3580   -23.9060    32.2820 C.3          1 NAP802   0.0000
    36 N1N          7.2970   -23.0930    32.8660 N.ar         1 NAP802   1.0000
    37 C2N          7.5570   -21.7550    32.9680 C.ar         1 NAP802   0.0000
    38 C3N          6.6170   -20.8910    33.4520 C.ar         1 NAP802   0.0000
    39 C7N          6.9260   -19.4450    33.4980 C.2          1 NAP802   0.0000
    40 O7N          6.2070   -18.7340    34.4330 O.2          1 NAP802   0.0000
    41 N7N          7.7780   -18.9100    32.6080 N.am         1 NAP802   0.0000
    42 C4N          5.3820   -21.3780    33.9330 C.ar         1 NAP802   0.0000
    43 C5N          5.1170   -22.7460    33.7790 C.ar         1 NAP802   0.0000
    44 C6N          6.0770   -23.5960    33.2520 C.ar         1 NAP802   0.0000
    45 P2B          7.6290   -34.4710    24.9020 P.3          1 NAP802   0.0000
    46 O1X          6.5270   -34.8950    23.9600 O.co2        1 NAP802   0.0000
    47 O2X          8.9840   -34.8660    24.3810 O.co2        1 NAP802  -1.0000
    48 O3X          7.3570   -34.9790    26.3030 O.co2        1 NAP802  -1.0000
    49 H5B1         7.8468   -31.3493    29.1196 H            1 NAP802   0.0000
    50 H5B2         7.8561   -29.7351    29.3665 H            1 NAP802   0.0000
    51 H4B          6.7301   -29.4405    27.2281 H            1 NAP802   0.0000
    52 H3B          6.2750   -32.1272    27.3985 H            1 NAP802   0.0000
    53 H5           5.2874   -31.8533    25.3544 H            1 NAP802   0.0000
    54 H2B          8.3902   -32.6406    26.6934 H            1 NAP802   0.0000
    55 H1B          8.1035   -30.2577    25.0907 H            1 NAP802   0.0000
    56 H8A         10.6807   -32.8658    25.9989 H            1 NAP802   0.0000
    57 H6A1        14.0371   -30.1970    21.5536 H            1 NAP802   0.0000
    58 H6A2        13.8932   -31.5263    22.6546 H            1 NAP802   0.0000
    59 H2A         10.3277   -27.6057    22.2237 H            1 NAP802   0.0000
    60 H5D1         6.5909   -25.9616    29.5428 H            1 NAP802   0.0000
    61 H5D2         7.3965   -27.3244    29.9433 H            1 NAP802   0.0000
    62 H4D          8.9457   -25.5630    29.8783 H            1 NAP802   0.0000
    63 H3D          8.8707   -27.0893    32.0584 H            1 NAP802   0.0000
    64 H16         10.7675   -26.4208    30.8643 H            1 NAP802   0.0000
    65 H2D          7.7326   -25.5818    33.3680 H            1 NAP802   0.0000
    66 H18         10.1591   -24.3870    33.9146 H            1 NAP802   0.0000
    67 H1D          9.2067   -23.3792    32.2352 H            1 NAP802   0.0000
    68 H2N          8.4491   -21.4036    32.6839 H            1 NAP802   0.0000
    69 H7N1         7.9860   -17.9324    32.6402 H            1 NAP802   0.0000
    70 H7N2         8.2043   -19.4893    31.9132 H            1 NAP802   0.0000
    71 H4N          4.7195   -20.7684    34.3683 H            1 NAP802   0.0000
    72 H5N          4.2273   -23.1120    34.0518 H            1 NAP802   0.0000
    73 H6N          5.8828   -24.5719    33.1529 H            1 NAP802   0.0000
@<TRIPOS>BOND
     1    1    2      ar
     2    1    3      ar
     3    1    4       1
     4    1   23       1
     5    4    5       1
     6    5    6       1
     7    6    7       1
     8    6    8       1
     9    7   12       1
    10    8    9       1
    11    8   10       1
    12   10   11       1
    13   10   12       1
    14   11   45       1
    15   12   13       1
    16   13   14       1
    17   13   22       1
    18   14   15       2
    19   15   16       1
    20   16   17      ar
    21   16   22      ar
    22   17   18       1
    23   17   19      ar
    24   19   20      ar
    25   20   21      ar
    26   21   22      ar
    27   23   24       1
    28   24   25      ar
    29   24   26      ar
    30   24   27       1
    31   27   28       1
    32   28   29       1
    33   29   30       1
    34   29   31       1
    35   30   35       1
    36   31   32       1
    37   31   33       1
    38   33   34       1
    39   33   35       1
    40   35   36       1
    41   36   37      ar
    42   36   44      ar
    43   37   38      ar
    44   38   39       1
    45   38   42      ar
    46   39   40       2
    47   39   41      am
    48   42   43      ar
    49   43   44      ar
    50   45   46      ar
    51   45   47      ar
    52   45   48      ar
    53   43   72       1
    54    5   49       1
    55    5   50       1
    56    6   51       1
    57    8   52       1
    58    9   53       1
    59   10   54       1
    60   12   55       1
    61   14   56       1
    62   18   57       1
    63   18   58       1
    64   20   59       1
    65   44   73       1
    66   28   60       1
    67   28   61       1
    68   29   62       1
    69   31   63       1
    70   32   64       1
    71   33   65       1
    72   34   66       1
    73   35   67       1
    74   37   68       1
    75   41   69       1
    76   41   70       1
    77   42   71       1
@<TRIPOS>SUBSTRUCTURE
     1 NAP802      1 GROUP             4 B     NAP     0 **** NAP B 802
