@<TRIPOS>MOLECULE
3cin_NAD_1_ligand
   70    74     1     0     0
SMALL
NO_CHARGES


@<TRIPOS>ATOM
     1 PA          15.6790     8.5570    38.2740 P.3          1 NAD400   0.0000
     2 O1A         14.8930     7.8850    39.3680 O.co2        1 NAD400   0.0000
     3 O2A         15.9890     7.6160    37.1510 O.co2        1 NAD400  -1.0000
     4 O5B         14.7380     9.6770    37.7070 O.3          1 NAD400   0.0000
     5 C5B         15.0520    10.3430    36.4860 C.3          1 NAD400   0.0000
     6 C4B         13.7360    10.7290    35.8340 C.3          1 NAD400   0.0000
     7 O4B         14.0020    11.5930    34.7410 O.3          1 NAD400   0.0000
     8 C3B         12.9220     9.5620    35.2880 C.3          1 NAD400   0.0000
     9 O3B         11.5490     9.6950    35.6160 O.3          1 NAD400   0.0000
    10 C2B         13.1190     9.6640    33.7810 C.3          1 NAD400   0.0000
    11 O2B         12.1150     9.0010    33.0620 O.3          1 NAD400   0.0000
    12 C1B         13.1890    11.1660    33.6190 C.3          1 NAD400   0.0000
    13 N9A         13.8380    11.6380    32.3930 N.pl3        1 NAD400   0.0000
    14 C8A         14.9740    11.0660    31.8290 C.2          1 NAD400   0.0000
    15 N7A         15.3430    11.8810    30.7820 N.2          1 NAD400   0.0000
    16 C5A         14.4370    12.9100    30.7060 C.ar         1 NAD400   0.0000
    17 C6A         14.2720    13.9550    29.7930 C.ar         1 NAD400   0.0000
    18 N6A         15.1500    14.1880    28.7670 N.pl3        1 NAD400   0.0000
    19 N1A         13.2540    14.8540    30.0420 N.ar         1 NAD400   0.0000
    20 C2A         12.3930    14.6640    31.1080 C.ar         1 NAD400   0.0000
    21 N3A         12.4930    13.5920    31.9700 N.ar         1 NAD400   0.0000
    22 C4A         13.5120    12.7390    31.7390 C.ar         1 NAD400   0.0000
    23 O3          16.9820     9.2310    38.8470 O.3          1 NAD400   0.0000
    24 PN          17.1080     9.9740    40.2330 P.3          1 NAD400   0.0000
    25 O1N         17.7570     9.0380    41.1970 O.co2        1 NAD400   0.0000
    26 O2N         15.8550    10.7200    40.5490 O.co2        1 NAD400  -1.0000
    27 O5D         18.2470    11.0350    39.8960 O.3          1 NAD400   0.0000
    28 C5D         17.9520    12.1660    39.1090 C.3          1 NAD400   0.0000
    29 C4D         19.2220    12.9030    38.6990 C.3          1 NAD400   0.0000
    30 O4D         19.7960    13.4680    39.8460 O.3          1 NAD400   0.0000
    31 C3D         20.2910    12.0630    38.0180 C.3          1 NAD400   0.0000
    32 O3D         20.9420    12.8430    36.9820 O.3          1 NAD400   0.0000
    33 C2D         21.2870    11.8610    39.1490 C.3          1 NAD400   0.0000
    34 O2D         22.6200    11.6750    38.6640 O.3          1 NAD400   0.0000
    35 C1D         21.1730    13.1990    39.8450 C.3          1 NAD400   0.0000
    36 N1N         21.6670    13.1690    41.2200 N.ar         1 NAD400   1.0000
    37 C2N         21.1010    12.3520    42.1120 C.ar         1 NAD400   0.0000
    38 C3N         21.6340    12.4270    43.4270 C.ar         1 NAD400   0.0000
    39 C7N         20.8880    11.7490    44.4830 C.2          1 NAD400   0.0000
    40 O7N         19.8100    11.0120    44.0790 O.2          1 NAD400   0.0000
    41 N7N         21.2690    11.8770    45.7640 N.am         1 NAD400   0.0000
    42 C4N         22.6780    13.2660    43.7630 C.ar         1 NAD400   0.0000
    43 C5N         23.2420    14.0770    42.8210 C.ar         1 NAD400   0.0000
    44 C6N         22.6930    14.0230    41.5320 C.ar         1 NAD400   0.0000
    45 H5B1        15.5660     9.7315    35.8845 H            1 NAD400   0.0000
    46 H5B2        15.5953    11.1617    36.6721 H            1 NAD400   0.0000
    47 H4B         13.1798    11.2217    36.5032 H            1 NAD400   0.0000
    48 H3B         13.2814     8.6938    35.6302 H            1 NAD400   0.0000
    49 H5          11.0810    10.2022    34.8923 H            1 NAD400   0.0000
    50 H2B         14.0059     9.2691    33.5412 H            1 NAD400   0.0000
    51 H7          11.3635     9.6344    32.8775 H            1 NAD400   0.0000
    52 H1B         12.2727    11.5597    33.6928 H            1 NAD400   0.0000
    53 H8A         15.4323    10.2281    32.1255 H            1 NAD400   0.0000
    54 H6A1        14.9922    14.9482    28.1368 H            1 NAD400   0.0000
    55 H6A2        15.9485    13.5978    28.6485 H            1 NAD400   0.0000
    56 H2A         11.6660    15.3335    31.2603 H            1 NAD400   0.0000
    57 H5D1        17.3710    12.7866    39.6356 H            1 NAD400   0.0000
    58 H5D2        17.4659    11.8722    38.2860 H            1 NAD400   0.0000
    59 H4D         18.9663    13.6453    38.0796 H            1 NAD400   0.0000
    60 H3D         19.9298    11.1974    37.6711 H            1 NAD400   0.0000
    61 H17         20.2643    13.1288    36.3045 H            1 NAD400   0.0000
    62 H2D         21.0095    11.1118    39.7504 H            1 NAD400   0.0000
    63 H19         22.5896    11.2402    37.7640 H            1 NAD400   0.0000
    64 H1D         21.6584    13.8996    39.3219 H            1 NAD400   0.0000
    65 H2N         20.3548    11.7313    41.8714 H            1 NAD400   0.0000
    66 H7N1        20.7574    11.4122    46.4866 H            1 NAD400   0.0000
    67 H7N2        22.0644    12.4371    45.9955 H            1 NAD400   0.0000
    68 H4N         23.0228    13.2795    44.7016 H            1 NAD400   0.0000
    69 H5N         24.0092    14.6801    43.0395 H            1 NAD400   0.0000
    70 H6N         23.0596    14.6234    40.8213 H            1 NAD400   0.0000
@<TRIPOS>BOND
     1    1    2      ar
     2    1    3      ar
     3    1    4       1
     4    1   23       1
     5    4    5       1
     6    5    6       1
     7    6    7       1
     8    6    8       1
     9    7   12       1
    10    8    9       1
    11    8   10       1
    12   10   11       1
    13   10   12       1
    14   12   13       1
    15   13   14       1
    16   13   22       1
    17   14   15       2
    18   15   16       1
    19   16   17      ar
    20   16   22      ar
    21   17   18       1
    22   17   19      ar
    23   19   20      ar
    24   20   21      ar
    25   21   22      ar
    26   23   24       1
    27   24   25      ar
    28   24   26      ar
    29   24   27       1
    30   27   28       1
    31   28   29       1
    32   29   30       1
    33   29   31       1
    34   30   35       1
    35   31   32       1
    36   31   33       1
    37   33   34       1
    38   33   35       1
    39   35   36       1
    40   36   37      ar
    41   36   44      ar
    42   37   38      ar
    43   38   39       1
    44   38   42      ar
    45   39   40       2
    46   39   41      am
    47   42   43      ar
    48   43   44      ar
    49   44   70       1
    50    5   45       1
    51    5   46       1
    52    6   47       1
    53    8   48       1
    54    9   49       1
    55   10   50       1
    56   11   51       1
    57   12   52       1
    58   14   53       1
    59   18   54       1
    60   18   55       1
    61   20   56       1
    62   43   69       1
    63   28   57       1
    64   28   58       1
    65   29   59       1
    66   31   60       1
    67   32   61       1
    68   33   62       1
    69   34   63       1
    70   35   64       1
    71   37   65       1
    72   41   66       1
    73   41   67       1
    74   42   68       1
@<TRIPOS>SUBSTRUCTURE
     1 NAD400      1 GROUP             4 A     NAD     0 **** NAD A 400
