@<TRIPOS>MOLECULE
2pbz_ATP_2_ligand
   43    45     1     0     0
SMALL
NO_CHARGES


@<TRIPOS>ATOM
     1 PG          58.0190    68.9420    15.2790 P.3          1 ATP400   0.0000
     2 O1G         58.4880    70.1770    15.9960 O.co2        1 ATP400   0.0000
     3 O2G         58.5440    68.9790    13.7310 O.co2        1 ATP400  -1.0000
     4 O3G         56.3990    68.8620    15.2970 O.co2        1 ATP400  -1.0000
     5 PB          58.1570    67.4480    17.5820 P.3          1 ATP400   0.0000
     6 O1B         58.6610    68.6210    18.3480 O.co2        1 ATP400   0.0000
     7 O2B         56.5420    67.3660    17.6660 O.co2        1 ATP400  -1.0000
     8 O3B         58.6280    67.5840    16.0180 O.3          1 ATP400   0.0000
     9 PA          58.5350    65.6310    19.6990 P.3          1 ATP400   0.0000
    10 O1A         57.0840    65.4560    19.9700 O.co2        1 ATP400   0.0000
    11 O2A         59.1810    66.6690    20.7300 O.co2        1 ATP400  -1.0000
    12 O3A         58.8220    66.0930    18.1160 O.3          1 ATP400   0.0000
    13 O5'         59.3060    64.2230    19.7490 O.3          1 ATP400   0.0000
    14 C5'         59.1370    63.5850    20.9780 C.3          1 ATP400   0.0000
    15 C4'         59.8810    62.2780    20.8040 C.3          1 ATP400   0.0000
    16 O4'         61.3000    62.5080    20.5340 O.3          1 ATP400   0.0000
    17 C3'         59.7590    61.3660    22.0350 C.3          1 ATP400   0.0000
    18 O3'         59.1080    60.1710    21.6720 O.3          1 ATP400   0.0000
    19 C2'         61.1720    61.1130    22.5250 C.3          1 ATP400   0.0000
    20 O2'         61.4800    59.6980    22.4600 O.3          1 ATP400   0.0000
    21 C1'         62.0940    61.9630    21.6260 C.3          1 ATP400   0.0000
    22 N9          62.6690    63.0340    22.4580 N.pl3        1 ATP400   0.0000
    23 C8          62.3010    64.3510    22.4900 C.2          1 ATP400   0.0000
    24 N7          63.0250    65.0090    23.3370 N.2          1 ATP400   0.0000
    25 C5          63.9070    64.1620    23.9080 C.ar         1 ATP400   0.0000
    26 C6          64.9390    64.2830    24.8830 C.ar         1 ATP400   0.0000
    27 N6          65.2050    65.5260    25.4640 N.pl3        1 ATP400   0.0000
    28 N1          65.6550    63.1670    25.2330 N.ar         1 ATP400   0.0000
    29 C2          65.4180    61.9680    24.6840 C.ar         1 ATP400   0.0000
    30 N3          64.4590    61.8160    23.7640 N.ar         1 ATP400   0.0000
    31 C4          63.6940    62.8780    23.3530 C.ar         1 ATP400   0.0000
    32 H5'1        58.1684    63.4225    21.1660 H            1 ATP400   0.0000
    33 H5'2        59.5341    64.1263    21.7192 H            1 ATP400   0.0000
    34 H4'         59.4882    61.7976    20.0198 H            1 ATP400   0.0000
    35 H3'         59.2343    61.8316    22.7477 H            1 ATP400   0.0000
    36 H5          58.2702    60.0714    22.2089 H            1 ATP400   0.0000
    37 H2'         61.2541    61.4256    23.4713 H            1 ATP400   0.0000
    38 H7          60.6886    59.2006    22.1048 H            1 ATP400   0.0000
    39 H1'         62.8271    61.3912    21.2577 H            1 ATP400   0.0000
    40 H9          61.5719    64.7509    21.9346 H            1 ATP400   0.0000
    41 H10         65.9288    65.6134    26.1485 H            1 ATP400   0.0000
    42 H11         64.6715    66.3280    25.1952 H            1 ATP400   0.0000
    43 H12         65.9637    61.1786    24.9650 H            1 ATP400   0.0000
@<TRIPOS>BOND
     1    1    2      ar
     2    1    3      ar
     3    1    4      ar
     4    1    8       1
     5    5    6      ar
     6    5    7      ar
     7    5    8       1
     8    5   12       1
     9    9   10      ar
    10    9   11      ar
    11    9   12       1
    12    9   13       1
    13   13   14       1
    14   14   15       1
    15   15   16       1
    16   15   17       1
    17   16   21       1
    18   17   18       1
    19   17   19       1
    20   19   20       1
    21   19   21       1
    22   21   22       1
    23   22   23       1
    24   22   31       1
    25   23   24       2
    26   24   25       1
    27   25   26      ar
    28   25   31      ar
    29   26   27       1
    30   26   28      ar
    31   28   29      ar
    32   29   30      ar
    33   30   31      ar
    34   29   43       1
    35   27   42       1
    36   27   41       1
    37   23   40       1
    38   14   32       1
    39   14   33       1
    40   15   34       1
    41   17   35       1
    42   18   36       1
    43   19   37       1
    44   20   38       1
    45   21   39       1
@<TRIPOS>SUBSTRUCTURE
     1 ATP400      1 GROUP             4 B     ATP     0 **** ATP B 400
