@<TRIPOS>MOLECULE
3cgy_RDC_1_ligand
   42    44     1     0     0
SMALL
NO_CHARGES


@<TRIPOS>ATOM
     1 C1          61.5240     6.3360    21.5630 C.2          1 RDC700   0.0000
     2 C2          62.8820     6.9090    21.1560 C.ar         1 RDC700   0.0000
     3 C3          63.4600     6.5500    19.8740 C.ar         1 RDC700   0.0000
     4 C4          64.6940     7.0720    19.5010 C.ar         1 RDC700   0.0000
     5 C5          65.4060     7.9550    20.3150 C.ar         1 RDC700   0.0000
     6 C6          64.8940     8.3490    21.5910 C.ar         1 RDC700   0.0000
     7 C7          63.6360     7.8490    22.0260 C.ar         1 RDC700   0.0000
     8 C8          63.0800     8.2780    23.4190 C.3          1 RDC700   0.0000
     9 C9          63.7520     7.6610    24.6050 C.2          1 RDC700   0.0000
    10 C10         63.5800     6.2480    25.0280 C.2          1 RDC700   0.0000
    11 C11         62.8090     5.2460    24.4130 C.2          1 RDC700   0.0000
    12 C12         62.8020     3.9160    25.0880 C.2          1 RDC700   0.0000
    13 C13         62.1820     2.7230    24.7390 C.2          1 RDC700   0.0000
    14 C14         61.2860     2.1830    23.5620 C.3          1 RDC700   0.0000
    15 C15         59.9760     2.9070    23.0280 C.3          1 RDC700   0.0000
    16 C16         60.1880     3.3350    21.5530 C.3          1 RDC700   0.0000
    17 C17         59.5630     4.7220    21.0980 C.3          1 RDC700   0.0000
    18 C18         58.7080     5.4320    22.1880 C.3          1 RDC700   0.0000
    19 O1          60.8340     5.4340    20.7530 O.3          1 RDC700   0.0000
    20 O2          61.0580     6.6580    22.6850 O.2          1 RDC700   0.0000
    21 O3          62.8520     5.6980    19.0480 O.3          1 RDC700   0.0000
    22 O4          66.5830     8.4170    19.8710 O.3          1 RDC700   0.0000
    23 CL1         65.8360     9.4680    22.5760 Cl           1 RDC700   0.0000
    24 O5          64.5000     8.4110    25.2950 O.2          1 RDC700   0.0000
    25 O6          60.0430     1.5590    23.5940 O.3          1 RDC700   0.0000
    26 H1          65.0846     6.8058    18.6198 H            1 RDC700   0.0000
    27 H2          62.1114     8.0315    23.4522 H            1 RDC700   0.0000
    28 H3          63.1741     9.2707    23.4947 H            1 RDC700   0.0000
    29 H4          64.0743     5.9751    25.8533 H            1 RDC700   0.0000
    30 H5          62.2952     5.4152    23.5719 H            1 RDC700   0.0000
    31 H6          63.3331     3.8765    25.9344 H            1 RDC700   0.0000
    32 H7          62.3509     2.0126    25.4222 H            1 RDC700   0.0000
    33 H8          61.8453     1.8405    22.8071 H            1 RDC700   0.0000
    34 H9          59.5956     3.6089    23.6301 H            1 RDC700   0.0000
    35 H10         59.7912     2.6228    20.9739 H            1 RDC700   0.0000
    36 H11         61.1740     3.3835    21.3934 H            1 RDC700   0.0000
    37 H12         59.0150     4.5904    20.2719 H            1 RDC700   0.0000
    38 H13         58.3527     6.2932    21.8244 H            1 RDC700   0.0000
    39 H14         57.9452     4.8411    22.4506 H            1 RDC700   0.0000
    40 H15         59.2768     5.6178    22.9892 H            1 RDC700   0.0000
    41 H16         61.9764     5.2898    19.3064 H            1 RDC700   0.0000
    42 H17         66.9290     8.1280    18.9784 H            1 RDC700   0.0000
@<TRIPOS>BOND
     1    1    2       1
     2    1   19       1
     3    1   20       2
     4    2    3      ar
     5    2    7      ar
     6    3    4      ar
     7    3   21       1
     8    4    5      ar
     9    5    6      ar
    10    5   22       1
    11    6    7      ar
    12    6   23       1
    13    7    8       1
    14    8    9       1
    15    9   10       1
    16    9   24       2
    17   10   11       2
    18   11   12       1
    19   12   13       2
    20   13   14       1
    21   14   15       1
    22   14   25       1
    23   15   16       1
    24   15   25       1
    25   16   17       1
    26   17   18       1
    27   17   19       1
    28    4   26       1
    29    8   27       1
    30    8   28       1
    31   10   29       1
    32   11   30       1
    33   12   31       1
    34   13   32       1
    35   14   33       1
    36   15   34       1
    37   16   35       1
    38   16   36       1
    39   17   37       1
    40   18   38       1
    41   18   39       1
    42   18   40       1
    43   21   41       1
    44   22   42       1
@<TRIPOS>SUBSTRUCTURE
     1 RDC700      1 GROUP             4 A     RDC     0 **** RDC A 700
