@<TRIPOS>MOLECULE
3fst_FAD_3_ligand
   84    89     1     0     0
SMALL
NO_CHARGES


@<TRIPOS>ATOM
     1 PA          -5.0700    14.5370    73.1100 P.3          1 FAD397   0.0000
     2 O1A         -5.8050    14.4970    74.5820 O.co2        1 FAD397   0.0000
     3 O2A         -4.6510    13.2380    72.7650 O.co2        1 FAD397  -1.0000
     4 O5B         -3.8370    15.5490    73.1260 O.3          1 FAD397   0.0000
     5 C5B         -4.1680    16.8410    72.8320 C.3          1 FAD397   0.0000
     6 C4B         -3.2150    17.8730    73.4090 C.3          1 FAD397   0.0000
     7 O4B         -3.2500    17.7950    74.8860 O.3          1 FAD397   0.0000
     8 C3B         -1.8270    17.4680    73.0230 C.3          1 FAD397   0.0000
     9 O3B         -1.1030    18.6070    72.8370 O.3          1 FAD397   0.0000
    10 C2B         -1.2820    16.7040    74.2000 C.3          1 FAD397   0.0000
    11 O2B          0.1030    16.7450    74.2190 O.3          1 FAD397   0.0000
    12 C1B         -1.8990    17.5330    75.3370 C.3          1 FAD397   0.0000
    13 N9A         -2.1230    16.7250    76.4860 N.pl3        1 FAD397   0.0000
    14 C8A         -2.8810    15.4640    76.5460 C.2          1 FAD397   0.0000
    15 N7A         -2.8990    15.0060    77.9380 N.2          1 FAD397   0.0000
    16 C5A         -2.2070    16.0430    78.7040 C.ar         1 FAD397   0.0000
    17 C6A         -1.9260    16.1630    80.1500 C.ar         1 FAD397   0.0000
    18 N6A         -2.3750    15.1240    81.0160 N.pl3        1 FAD397   0.0000
    19 N1A         -1.1900    17.3020    80.6410 N.ar         1 FAD397   0.0000
    20 C2A         -0.7150    18.3910    79.7440 C.ar         1 FAD397   0.0000
    21 N3A         -1.0170    18.2710    78.2970 N.ar         1 FAD397   0.0000
    22 C4A         -1.7450    17.1040    77.8130 C.ar         1 FAD397   0.0000
    23 N1         -11.2520    16.7050    65.8500 N.2          1 FAD397   0.0000
    24 C2         -12.7120    16.7440    65.8860 C.2          1 FAD397   0.0000
    25 O2         -13.3220    17.7940    66.4880 O.2          1 FAD397   0.0000
    26 N3         -13.5290    15.7190    65.2990 N.pl3        1 FAD397   0.0000
    27 C4         -12.9330    14.6000    64.6310 C.2          1 FAD397   0.0000
    28 O4         -13.7320    13.6330    64.1050 O.2          1 FAD397   0.0000
    29 C4X        -11.4830    14.5210    64.6160 C.2          1 FAD397   0.0000
    30 N5         -10.8620    13.3730    63.9680 N.2          1 FAD397   0.0000
    31 C5X         -9.4240    13.3550    63.9740 C.ar         1 FAD397   0.0000
    32 C6          -8.7600    12.1630    63.3330 C.ar         1 FAD397   0.0000
    33 C7          -7.2680    12.1110    63.2980 C.ar         1 FAD397   0.0000
    34 C7M         -6.7310    10.8760    62.6060 C.3          1 FAD397   0.0000
    35 C8          -6.3880    13.2050    63.8890 C.ar         1 FAD397   0.0000
    36 C8M         -4.8900    13.1460    63.8640 C.3          1 FAD397   0.0000
    37 C9          -7.0560    14.3920    64.5560 C.ar         1 FAD397   0.0000
    38 C9A         -8.5770    14.4350    64.5650 C.ar         1 FAD397   0.0000
    39 N10         -9.2180    15.5590    65.2160 N.pl3        1 FAD397   0.0000
    40 C10        -10.6550    15.5890    65.2110 C.2          1 FAD397   0.0000
    41 C1'         -8.4380    16.5970    65.7950 C.3          1 FAD397   0.0000
    42 C2'         -8.2560    16.5350    67.3260 C.3          1 FAD397   0.0000
    43 O2'         -9.2840    16.4800    67.8610 O.3          1 FAD397   0.0000
    44 C3'         -7.4820    17.7680    67.6710 C.3          1 FAD397   0.0000
    45 O3'         -6.2230    17.6820    67.1540 O.3          1 FAD397   0.0000
    46 C4'         -7.3750    18.1010    69.1660 C.3          1 FAD397   0.0000
    47 O4'         -6.6020    19.2350    69.1810 O.3          1 FAD397   0.0000
    48 C5'         -6.5170    17.0400    69.9030 C.3          1 FAD397   0.0000
    49 O5'         -7.1870    15.8310    69.9630 O.3          1 FAD397   0.0000
    50 P           -6.4090    14.5160    70.5270 P.3          1 FAD397   0.0000
    51 O1P         -7.4360    13.3160    70.4280 O.co2        1 FAD397   0.0000
    52 O2P         -5.1310    14.5020    70.0630 O.co2        1 FAD397  -1.0000
    53 O3P         -6.2280    14.9280    72.1020 O.3          1 FAD397   0.0000
    54 H5B1        -5.0825    17.0210    73.1945 H            1 FAD397   0.0000
    55 H5B2        -4.1775    16.9440    71.8374 H            1 FAD397   0.0000
    56 H4B         -3.4318    18.7939    73.0851 H            1 FAD397   0.0000
    57 H3B         -1.8317    16.9041    72.1972 H            1 FAD397   0.0000
    58 H5          -1.5215    19.1532    72.1114 H            1 FAD397   0.0000
    59 H2B         -1.6189    15.7625    74.2111 H            1 FAD397   0.0000
    60 H7           0.4601    16.3375    73.3785 H            1 FAD397   0.0000
    61 H1B         -1.3844    18.3665    75.5382 H            1 FAD397   0.0000
    62 H8A         -3.3096    15.0002    75.7706 H            1 FAD397   0.0000
    63 H6A1        -2.1979    15.1806    81.9986 H            1 FAD397   0.0000
    64 H6A2        -2.8671    14.3384    80.6411 H            1 FAD397   0.0000
    65 H2A         -0.2103    19.1755    80.1043 H            1 FAD397   0.0000
    66 H13        -14.5250    15.7869    65.3571 H            1 FAD397   0.0000
    67 H14         -9.3065    11.4235    62.9400 H            1 FAD397   0.0000
    68 H7M1        -5.7313    10.8975    62.6140 H            1 FAD397   0.0000
    69 H7M2        -7.0507    10.0592    63.0863 H            1 FAD397   0.0000
    70 H7M3        -7.0564    10.8556    61.6606 H            1 FAD397   0.0000
    71 H8M1        -4.5168    13.9628    64.3040 H            1 FAD397   0.0000
    72 H8M2        -4.5802    12.3318    64.3551 H            1 FAD397   0.0000
    73 H8M3        -4.5738    13.1040    62.9162 H            1 FAD397   0.0000
    74 H21         -6.5155    15.1213    64.9754 H            1 FAD397   0.0000
    75 H1'1        -8.8765    17.4682    65.5744 H            1 FAD397   0.0000
    76 H1'2        -7.5298    16.5659    65.3777 H            1 FAD397   0.0000
    77 H2'         -7.7157    15.7276    67.5629 H            1 FAD397   0.0000
    78 H25        -10.0155    16.4878    67.1792 H            1 FAD397   0.0000
    79 H3'         -7.9356    18.5396    67.2251 H            1 FAD397   0.0000
    80 H27         -5.9440    16.7226    67.1138 H            1 FAD397   0.0000
    81 H4'         -8.2681    18.2386    69.5943 H            1 FAD397   0.0000
    82 H29         -6.7530    19.7525    68.3387 H            1 FAD397   0.0000
    83 H5'1        -6.3276    17.3576    70.8321 H            1 FAD397   0.0000
    84 H5'2        -5.6552    16.9145    69.4114 H            1 FAD397   0.0000
@<TRIPOS>BOND
     1    1    2      ar
     2    1    3      ar
     3    1    4       1
     4    1   53       1
     5    4    5       1
     6    5    6       1
     7    6    7       1
     8    6    8       1
     9    7   12       1
    10    8    9       1
    11    8   10       1
    12   10   11       1
    13   10   12       1
    14   12   13       1
    15   13   14       1
    16   13   22       1
    17   14   15       2
    18   15   16       1
    19   16   17      ar
    20   16   22      ar
    21   17   18       1
    22   17   19      ar
    23   19   20      ar
    24   20   21      ar
    25   21   22      ar
    26   23   24       1
    27   23   40       2
    28   24   25       2
    29   24   26       1
    30   26   27       1
    31   27   28       2
    32   27   29       1
    33   29   30       2
    34   29   40       1
    35   30   31       1
    36   31   32      ar
    37   31   38      ar
    38   32   33      ar
    39   33   34       1
    40   33   35      ar
    41   35   36       1
    42   35   37      ar
    43   37   38      ar
    44   38   39       1
    45   39   40       1
    46   39   41       1
    47   41   42       1
    48   42   43       1
    49   42   44       1
    50   44   45       1
    51   44   46       1
    52   46   47       1
    53   46   48       1
    54   48   49       1
    55   49   50       1
    56   50   51      ar
    57   50   52      ar
    58   50   53       1
    59   48   84       1
    60    5   54       1
    61    5   55       1
    62    6   56       1
    63    8   57       1
    64    9   58       1
    65   10   59       1
    66   11   60       1
    67   12   61       1
    68   14   62       1
    69   18   63       1
    70   18   64       1
    71   20   65       1
    72   26   66       1
    73   32   67       1
    74   34   68       1
    75   34   69       1
    76   34   70       1
    77   36   71       1
    78   36   72       1
    79   36   73       1
    80   37   74       1
    81   41   75       1
    82   41   76       1
    83   42   77       1
    84   43   78       1
    85   44   79       1
    86   45   80       1
    87   46   81       1
    88   47   82       1
    89   48   83       1
@<TRIPOS>SUBSTRUCTURE
     1 FAD397      1 GROUP             4 E     FAD     0 **** FAD E 397
