@<TRIPOS>MOLECULE
4hni_16W_2_ligand
   43    46     1     0     0
SMALL
NO_CHARGES


@<TRIPOS>ATOM
     1 C1         -28.4330    19.2720   -15.2950 C.ar         1 16W301   0.0000
     2 C2         -28.4390    20.1760   -16.4170 C.ar         1 16W301   0.0000
     3 C3         -27.2020    20.4270   -17.1660 C.ar         1 16W301   0.0000
     4 C7         -33.2470    23.1780   -20.4920 C.ar         1 16W301   0.0000
     5 C8         -33.0370    22.9890   -18.0890 C.ar         1 16W301   0.0000
     6 C9         -32.0920    21.8970   -18.1680 C.ar         1 16W301   0.0000
     7 C10        -31.7690    21.4980   -19.4840 C.ar         1 16W301   0.0000
     8 C11        -31.7490    21.5400   -16.8300 C.2          1 16W301   0.0000
     9 C12        -30.8600    20.4790   -16.3250 C.3          1 16W301   0.0000
    10 C13        -35.9010    24.4780   -14.5310 C.3          1 16W301   0.0000
    11 C14        -34.3000    26.3260   -14.7340 C.3          1 16W301   0.0000
    12 C15        -33.3490    25.4020   -15.5750 C.3          1 16W301   0.0000
    13 C16        -34.0680    24.2300   -16.2570 C.3          1 16W301   0.0000
    14 N2         -33.6040    23.6150   -19.2110 N.ar         1 16W301   0.0000
    15 N4         -32.3380    22.1280   -20.6100 N.ar         1 16W301   0.0000
    16 N5         -33.1830    23.1950   -16.7880 N.pl3        1 16W301   0.0000
    17 N1         -32.4450    22.3690   -16.0820 N.2          1 16W301   0.0000
    18 N3         -30.8800    20.4820   -19.6510 N.pl3        1 16W301   0.0000
    19 O2         -29.6050    20.8330   -16.8510 O.3          1 16W301   0.0000
    20 O1         -35.1330    25.5350   -13.8690 O.3          1 16W301   0.0000
    21 C17        -34.9430    23.5530   -15.2020 C.3          1 16W301   0.0000
    22 C4         -25.9580    19.7890   -16.8070 C.ar         1 16W301   0.0000
    23 C5         -25.9580    18.8920   -15.6980 C.ar         1 16W301   0.0000
    24 C6         -27.1820    18.6630   -14.9980 C.ar         1 16W301   0.0000
    25 CL1        -27.2310    17.5170   -13.7680 Cl           1 16W301   0.0000
    26 H1         -29.2561    19.0845   -14.7590 H            1 16W301   0.0000
    27 H2         -27.2215    21.0552   -17.9438 H            1 16W301   0.0000
    28 H3         -33.6360    23.6102   -21.3056 H            1 16W301   0.0000
    29 H4         -31.1480    19.5812   -16.6582 H            1 16W301   0.0000
    30 H5         -30.8409    20.4731   -15.3252 H            1 16W301   0.0000
    31 H6         -36.5143    24.8807   -15.2105 H            1 16W301   0.0000
    32 H7         -36.4380    23.9754   -13.8535 H            1 16W301   0.0000
    33 H8         -34.8785    26.8551   -15.3547 H            1 16W301   0.0000
    34 H9         -33.7482    26.9493   -14.1800 H            1 16W301   0.0000
    35 H10        -32.6495    25.0305   -14.9645 H            1 16W301   0.0000
    36 H11        -32.9128    25.9587   -16.2820 H            1 16W301   0.0000
    37 H12        -34.6475    24.5800   -16.9930 H            1 16W301   0.0000
    38 H13        -30.6335    20.1795   -20.5717 H            1 16W301   0.0000
    39 H14        -30.4729    20.0376   -18.8530 H            1 16W301   0.0000
    40 H15        -35.4658    22.8252   -15.6458 H            1 16W301   0.0000
    41 H16        -34.3461    23.1568   -14.5043 H            1 16W301   0.0000
    42 H17        -25.1198    19.9707   -17.3213 H            1 16W301   0.0000
    43 H18        -25.1163    18.4317   -15.4156 H            1 16W301   0.0000
@<TRIPOS>BOND
     1    1    2      ar
     2    1   24      ar
     3    2    3      ar
     4    2   19       1
     5    3   22      ar
     6    4   14      ar
     7    4   15      ar
     8    5    6      ar
     9    5   14      ar
    10    5   16       1
    11    6    7      ar
    12    6    8       1
    13    7   15      ar
    14    7   18       1
    15    8    9       1
    16    8   17       2
    17    9   19       1
    18   10   20       1
    19   10   21       1
    20   11   12       1
    21   11   20       1
    22   12   13       1
    23   13   16       1
    24   13   21       1
    25   16   17       1
    26   22   23      ar
    27   23   24      ar
    28   24   25       1
    29    1   26       1
    30    3   27       1
    31    4   28       1
    32    9   29       1
    33    9   30       1
    34   10   31       1
    35   10   32       1
    36   11   33       1
    37   11   34       1
    38   12   35       1
    39   12   36       1
    40   13   37       1
    41   18   38       1
    42   18   39       1
    43   21   40       1
    44   21   41       1
    45   22   42       1
    46   23   43       1
@<TRIPOS>SUBSTRUCTURE
     1 16W301      1 GROUP             4 B     16W     0 **** 16W B 301
