@<TRIPOS>MOLECULE
3qbv_GDP_2_ligand
   40    42     1     0     0
SMALL
NO_CHARGES


@<TRIPOS>ATOM
     1 PB         -24.8320   -23.3780    33.9500 P.3          1 GDP200   0.0000
     2 O1B        -25.1830   -23.9630    32.6040 O.co2        1 GDP200   0.0000
     3 O2B        -24.8400   -21.8710    33.8910 O.co2        1 GDP200  -1.0000
     4 O3B        -23.4690   -23.8950    34.3520 O.co2        1 GDP200  -1.0000
     5 O3A        -25.9350   -23.8350    35.0370 O.3          1 GDP200   0.0000
     6 PA         -25.6180   -24.8780    36.2350 P.3          1 GDP200   0.0000
     7 O1A        -24.7170   -24.2540    37.2740 O.co2        1 GDP200   0.0000
     8 O2A        -25.0020   -26.1690    35.7540 O.co2        1 GDP200  -1.0000
     9 O5'        -27.0900   -25.1080    36.8390 O.3          1 GDP200   0.0000
    10 C5'        -27.2210   -25.4740    38.2090 C.3          1 GDP200   0.0000
    11 C4'        -28.5120   -24.9240    38.8050 C.3          1 GDP200   0.0000
    12 O4'        -29.6030   -25.2760    37.9540 O.3          1 GDP200   0.0000
    13 C3'        -28.7570   -25.5580    40.1630 C.3          1 GDP200   0.0000
    14 O3'        -29.2220   -24.5780    41.0960 O.3          1 GDP200   0.0000
    15 C2'        -29.8170   -26.6150    39.9330 C.3          1 GDP200   0.0000
    16 O2'        -30.8170   -26.5570    40.9600 O.3          1 GDP200   0.0000
    17 C1'        -30.4080   -26.2910    38.5660 C.3          1 GDP200   0.0000
    18 N9         -30.3680   -27.4820    37.6870 N.pl3        1 GDP200   0.0000
    19 C8         -29.3610   -27.8120    36.8580 C.2          1 GDP200   0.0000
    20 N7         -29.6370   -28.9550    36.1820 N.2          1 GDP200   0.0000
    21 C5         -30.8530   -29.3780    36.5840 C.2          1 GDP200   0.0000
    22 C6         -31.7520   -30.5170    36.2740 C.2          1 GDP200   0.0000
    23 O6         -31.4210   -31.3900    35.4430 O.2          1 GDP200   0.0000
    24 N1         -32.9280   -30.5730    36.9110 N.pl3        1 GDP200   0.0000
    25 C2         -33.3130   -29.6430    37.8080 C.2          1 GDP200   0.0000
    26 N2         -34.5140   -29.7640    38.4170 N.pl3        1 GDP200   0.0000
    27 N3         -32.5440   -28.5810    38.1390 N.2          1 GDP200   0.0000
    28 C4         -31.3280   -28.3990    37.5740 C.2          1 GDP200   0.0000
    29 H5'1       -26.4436   -25.1077    38.7203 H            1 GDP200   0.0000
    30 H5'2       -27.2273   -26.4714    38.2811 H            1 GDP200   0.0000
    31 H4'        -28.4530   -23.9298    38.8952 H            1 GDP200   0.0000
    32 H3'        -27.9167   -25.9821    40.5006 H            1 GDP200   0.0000
    33 H5         -30.0774   -24.1807    40.7636 H            1 GDP200   0.0000
    34 H2'        -29.3966   -27.5222    39.9168 H            1 GDP200   0.0000
    35 H7         -31.2504   -25.6559    40.9527 H            1 GDP200   0.0000
    36 H1'        -31.3495   -25.9691    38.6661 H            1 GDP200   0.0000
    37 H9         -28.5186   -27.2833    36.7538 H            1 GDP200   0.0000
    38 H10        -33.5453   -31.3346    36.7138 H            1 GDP200   0.0000
    39 H11        -34.8078   -29.0790    39.0837 H            1 GDP200   0.0000
    40 H12        -35.1085   -30.5385    38.2008 H            1 GDP200   0.0000
@<TRIPOS>BOND
     1    1    2      ar
     2    1    3      ar
     3    1    4      ar
     4    1    5       1
     5    5    6       1
     6    6    7      ar
     7    6    8      ar
     8    6    9       1
     9    9   10       1
    10   10   11       1
    11   11   12       1
    12   11   13       1
    13   12   17       1
    14   13   14       1
    15   13   15       1
    16   15   16       1
    17   15   17       1
    18   17   18       1
    19   18   19       1
    20   18   28       1
    21   19   20       2
    22   20   21       1
    23   21   22       1
    24   21   28       2
    25   22   23       2
    26   22   24       1
    27   24   25       1
    28   25   26       1
    29   25   27       2
    30   27   28       1
    31   26   40       1
    32   26   39       1
    33   24   38       1
    34   10   29       1
    35   10   30       1
    36   11   31       1
    37   13   32       1
    38   14   33       1
    39   15   34       1
    40   16   35       1
    41   17   36       1
    42   19   37       1
@<TRIPOS>SUBSTRUCTURE
     1 GDP200      1 GROUP             4 C     GDP     0 **** GDP C 200
