@<TRIPOS>MOLECULE
1vi0_DCC_1_ligand
  115   117     1     0     0
SMALL
NO_CHARGES


@<TRIPOS>ATOM
     1 C2          27.0430    56.1840     9.6600 C.ar         1 DCC205   0.0000
     2 C4          27.1390    53.9530     9.9000 C.ar         1 DCC205   0.0000
     3 C5          25.7800    53.7950     9.7520 C.ar         1 DCC205   0.0000
     4 C6          25.0560    54.9970     9.5880 C.ar         1 DCC205   0.0000
     5 C8          26.5740    51.8510    10.0030 C.2          1 DCC205   0.0000
     6 C10         14.2790    36.1370     7.2280 C.3          1 DCC205   0.0000
     7 C11         13.6390    34.7460     7.3810 C.3          1 DCC205   0.0000
     8 C12         14.5500    33.7220     8.0520 C.3          1 DCC205   0.0000
     9 N9          27.6510    52.7010    10.0840 N.pl3        1 DCC205   0.0000
    10 N7          25.4280    52.4640     9.8400 N.2          1 DCC205   0.0000
    11 N3          27.8300    55.1110     9.8430 N.ar         1 DCC205   0.0000
    12 N1          25.7030    56.1780     9.4900 N.ar         1 DCC205   0.0000
    13 N6          23.7270    54.9810     9.4780 N.pl3        1 DCC205   0.0000
    14 C1'         29.1210    52.3700    10.1550 C.3          1 DCC205   0.0000
    15 C2'         29.4620    51.2420    11.1530 C.3          1 DCC205   0.0000
    16 O2'         29.8800    51.9040    12.3770 O.3          1 DCC205   0.0000
    17 C3'         30.7420    50.6330    10.4900 C.3          1 DCC205   0.0000
    18 O3'         31.8330    51.6090    10.6370 O.3          1 DCC205   0.0000
    19 C4'         30.2870    50.6760     8.9770 C.3          1 DCC205   0.0000
    20 O4'         29.3990    51.7890     8.8710 O.3          1 DCC205   0.0000
    21 C5'         29.6950    49.3520     8.5510 C.3          1 DCC205   0.0000
    22 O5'         28.6560    48.8660     9.4500 O.3          1 DCC205   0.0000
    23 P1          27.2530    48.3140     8.9380 P.3          1 DCC205   0.0000
    24 O11         26.4900    47.8810    10.0890 O.co2        1 DCC205   0.0000
    25 O12         26.6360    49.3800     7.9770 O.co2        1 DCC205  -1.0000
    26 O6          27.6100    47.1450     7.9810 O.3          1 DCC205   0.0000
    27 P2          28.1390    45.8950     8.6620 P.3          1 DCC205   0.0000
    28 O21         28.0610    44.8170     7.6070 O.co2        1 DCC205   0.0000
    29 O22         29.4170    46.1980     9.3180 O.co2        1 DCC205  -1.0000
    30 O7          27.1110    45.4180     9.8240 O.3          1 DCC205   0.0000
    31 CPA         25.9330    44.5950     9.4020 C.3          1 DCC205   0.0000
    32 CPB         25.0690    44.2520    10.6510 C.3          1 DCC205   0.0000
    33 CP8         24.8890    45.5110    11.5190 C.3          1 DCC205   0.0000
    34 CP7         25.8510    43.2200    11.4550 C.3          1 DCC205   0.0000
    35 CP9         23.7880    43.5850    10.3010 C.3          1 DCC205   0.0000
    36 OP3         24.4450    46.5950    10.7720 O.3          1 DCC205   0.0000
    37 CP6         23.9820    45.2900    12.7130 C.2          1 DCC205   0.0000
    38 OP2         24.3110    44.5060    13.5930 O.2          1 DCC205   0.0000
    39 NP2         22.8960    46.0120    12.6930 N.am         1 DCC205   0.0000
    40 CP5         21.8580    45.8800    13.7970 C.3          1 DCC205   0.0000
    41 CP4         20.7620    44.9250    13.1820 C.3          1 DCC205   0.0000
    42 CP3         19.7550    44.5100    14.2700 C.2          1 DCC205   0.0000
    43 OP1         20.1460    43.9160    15.2740 O.2          1 DCC205   0.0000
    44 NP1         18.5300    44.8670    14.0630 N.am         1 DCC205   0.0000
    45 CP2         17.3900    44.6140    14.9710 C.3          1 DCC205   0.0000
    46 CP1         16.5300    43.6700    14.1840 C.3          1 DCC205   0.0000
    47 S           17.3330    42.2420    13.4210 S.3          1 DCC205   0.0000
    48 P3          33.3720    51.3330    11.0100 P.3          1 DCC205   0.0000
    49 O31         33.4120    50.2790    12.0240 O.co2        1 DCC205   0.0000
    50 O32         34.0950    50.9270     9.7950 O.co2        1 DCC205  -1.0000
    51 O33         33.8180    52.6800    11.5100 O.co2        1 DCC205  -1.0000
    52 CA1         17.3370    41.0790    14.8090 C.2          1 DCC205   0.0000
    53 CA2         17.5160    39.5970    14.3510 C.3          1 DCC205   0.0000
    54 OA1         17.1470    41.4280    15.9520 O.2          1 DCC205   0.0000
    55 CA3         16.2020    38.9750    13.8420 C.3          1 DCC205   0.0000
    56 CA4         16.1490    38.4310    12.4630 C.3          1 DCC205   0.0000
    57 CA5         15.4100    39.2960    11.4670 C.3          1 DCC205   0.0000
    58 CA6         14.6080    38.5250    10.4340 C.3          1 DCC205   0.0000
    59 CA7         15.1550    38.5560     9.0250 C.3          1 DCC205   0.0000
    60 CA8         14.1970    38.5660     7.8890 C.3          1 DCC205   0.0000
    61 CA9         13.3710    37.2940     7.6750 C.3          1 DCC205   0.0000
    62 H1          27.4942    57.0764     9.6485 H            1 DCC205   0.0000
    63 H2          26.6576    50.8563    10.0630 H            1 DCC205   0.0000
    64 H3          14.5104    36.2727     6.2647 H            1 DCC205   0.0000
    65 H4          15.1138    36.1615     7.7780 H            1 DCC205   0.0000
    66 H5          13.3992    34.4070     6.4713 H            1 DCC205   0.0000
    67 H6          12.8093    34.8390     7.9314 H            1 DCC205   0.0000
    68 H7          14.0736    32.8453     8.1189 H            1 DCC205   0.0000
    69 H8          15.3816    33.6088     7.5083 H            1 DCC205   0.0000
    70 H9          14.7917    34.0408     8.9685 H            1 DCC205   0.0000
    71 H10         23.2245    55.8378     9.3622 H            1 DCC205   0.0000
    72 H11         23.2330    54.1122     9.5113 H            1 DCC205   0.0000
    73 H1'         29.6752    53.1863    10.3180 H            1 DCC205   0.0000
    74 H2'         28.7224    50.5818    11.2837 H            1 DCC205   0.0000
    75 H14         30.6791    52.4756    12.1907 H            1 DCC205   0.0000
    76 H3'         30.9713    49.7166    10.8182 H            1 DCC205   0.0000
    77 H4'         31.0909    50.8588     8.4110 H            1 DCC205   0.0000
    78 H5'1        30.4284    48.6730     8.5178 H            1 DCC205   0.0000
    79 H5'2        29.2996    49.4605     7.6389 H            1 DCC205   0.0000
    80 HPA1        26.2526    43.7492     8.9747 H            1 DCC205   0.0000
    81 HPA2        25.3821    45.1120     8.7468 H            1 DCC205   0.0000
    82 HP8         25.7912    45.7516    11.8769 H            1 DCC205   0.0000
    83 HP71        25.3305    42.9691    12.2712 H            1 DCC205   0.0000
    84 HP72        26.0038    42.4064    10.8940 H            1 DCC205   0.0000
    85 HP73        26.7318    43.6073    11.7274 H            1 DCC205   0.0000
    86 HP91        23.2754    43.3883    11.1368 H            1 DCC205   0.0000
    87 HP92        23.2483    44.1874     9.7129 H            1 DCC205   0.0000
    88 HP93        23.9783    42.7304     9.8178 H            1 DCC205   0.0000
    89 HP3         25.2318    47.1019    10.4200 H            1 DCC205   0.0000
    90 HP2         22.7444    46.6582    11.9451 H            1 DCC205   0.0000
    91 HP51        21.4655    46.7714    14.0237 H            1 DCC205   0.0000
    92 HP52        22.2618    45.4752    14.6174 H            1 DCC205   0.0000
    93 HP41        21.2045    44.1084    12.8115 H            1 DCC205   0.0000
    94 HP42        20.2790    45.4040    12.4490 H            1 DCC205   0.0000
    95 HP1         18.3358    45.3578    13.2136 H            1 DCC205   0.0000
    96 HP21        16.8992    45.4610    15.1754 H            1 DCC205   0.0000
    97 HP22        17.6975    44.1928    15.8242 H            1 DCC205   0.0000
    98 HP11        16.0997    44.1977    13.4516 H            1 DCC205   0.0000
    99 HP12        15.8253    43.3217    14.8022 H            1 DCC205   0.0000
   100 HA21        17.8462    39.0591    15.1267 H            1 DCC205   0.0000
   101 HA22        18.1912    39.5683    13.6139 H            1 DCC205   0.0000
   102 HA31        15.4992    39.6837    13.9044 H            1 DCC205   0.0000
   103 HA32        15.9741    38.2241    14.4619 H            1 DCC205   0.0000
   104 HA41        15.6960    37.5401    12.4974 H            1 DCC205   0.0000
   105 HA42        17.0877    38.3153    12.1381 H            1 DCC205   0.0000
   106 HA51        16.0809    39.8590    10.9844 H            1 DCC205   0.0000
   107 HA52        14.7813    39.8867    11.9728 H            1 DCC205   0.0000
   108 HA61        13.6843    38.9075    10.4137 H            1 DCC205   0.0000
   109 HA62        14.5669    37.5698    10.7270 H            1 DCC205   0.0000
   110 HA71        15.7332    37.7475     8.9156 H            1 DCC205   0.0000
   111 HA72        15.7157    39.3801     8.9447 H            1 DCC205   0.0000
   112 HA81        14.7200    38.7320     7.0530 H            1 DCC205   0.0000
   113 HA82        13.5581    39.3208     8.0379 H            1 DCC205   0.0000
   114 HA91        12.9188    37.0463     8.5318 H            1 DCC205   0.0000
   115 HA92        12.6814    37.4631     6.9709 H            1 DCC205   0.0000
@<TRIPOS>BOND
     1    1   11      ar
     2    1   12      ar
     3    2    3      ar
     4    2    9       1
     5    2   11      ar
     6    3    4      ar
     7    3   10       1
     8    4   12      ar
     9    4   13       1
    10    5    9       1
    11    5   10       2
    12    6    7       1
    13    6   61       1
    14    7    8       1
    15    9   14       1
    16   14   15       1
    17   14   20       1
    18   15   16       1
    19   15   17       1
    20   17   18       1
    21   17   19       1
    22   18   48       1
    23   19   20       1
    24   19   21       1
    25   21   22       1
    26   22   23       1
    27   23   24      ar
    28   23   25      ar
    29   23   26       1
    30   26   27       1
    31   27   28      ar
    32   27   29      ar
    33   27   30       1
    34   30   31       1
    35   31   32       1
    36   32   33       1
    37   32   34       1
    38   32   35       1
    39   33   36       1
    40   33   37       1
    41   37   38       2
    42   37   39      am
    43   39   40       1
    44   40   41       1
    45   41   42       1
    46   42   43       2
    47   42   44      am
    48   44   45       1
    49   45   46       1
    50   46   47       1
    51   47   52       1
    52   48   49      ar
    53   48   50      ar
    54   48   51      ar
    55   52   53       1
    56   52   54       2
    57   53   55       1
    58   55   56       1
    59   56   57       1
    60   57   58       1
    61   58   59       1
    62   59   60       1
    63   60   61       1
    64    1   62       1
    65    5   63       1
    66    6   64       1
    67    6   65       1
    68    7   66       1
    69    7   67       1
    70    8   68       1
    71    8   69       1
    72    8   70       1
    73   13   71       1
    74   13   72       1
    75   14   73       1
    76   15   74       1
    77   16   75       1
    78   17   76       1
    79   19   77       1
    80   21   78       1
    81   21   79       1
    82   61  115       1
    83   61  114       1
    84   31   80       1
    85   31   81       1
    86   33   82       1
    87   34   83       1
    88   34   84       1
    89   34   85       1
    90   35   86       1
    91   35   87       1
    92   35   88       1
    93   36   89       1
    94   39   90       1
    95   40   91       1
    96   40   92       1
    97   41   93       1
    98   41   94       1
    99   44   95       1
   100   45   96       1
   101   45   97       1
   102   46   98       1
   103   46   99       1
   104   60  113       1
   105   60  112       1
   106   53  100       1
   107   53  101       1
   108   55  102       1
   109   55  103       1
   110   56  104       1
   111   56  105       1
   112   57  106       1
   113   57  107       1
   114   58  108       1
   115   58  109       1
   116   59  110       1
   117   59  111       1
@<TRIPOS>SUBSTRUCTURE
     1 DCC205      1 GROUP             4 A     DCC     0 **** DCC A 205
