@<TRIPOS>MOLECULE
4uxx_ACP_1_ligand
   45    47     1     0     0
SMALL
NO_CHARGES


@<TRIPOS>ATOM
     1 PG          34.8080   -29.8590    11.7970 P.3          1 ACP1123   0.0000
     2 O1G         36.2500   -30.2320    11.6630 O.co2        1 ACP1123   0.0000
     3 O2G         34.1930   -30.3430    13.1290 O.co2        1 ACP1123  -1.0000
     4 O3G         34.5870   -28.3320    11.7130 O.co2        1 ACP1123  -1.0000
     5 PB          33.9550   -29.8690     8.8640 P.3          1 ACP1123   0.0000
     6 O1B         34.1900   -28.3740     8.7930 O.co2        1 ACP1123   0.0000
     7 O2B         32.5760   -30.1860     8.2140 O.co2        1 ACP1123  -1.0000
     8 C3B         33.7910   -30.5820    10.5040 C.3          1 ACP1123   0.0000
     9 PA          36.2240   -30.4610     7.1100 P.3          1 ACP1123   0.0000
    10 O1A         37.4830   -30.6010     7.9710 O.co2        1 ACP1123   0.0000
    11 O2A         36.1200   -29.1930     6.3520 O.co2        1 ACP1123  -1.0000
    12 O3A         35.0140   -30.7950     8.1030 O.3          1 ACP1123   0.0000
    13 O5'         36.1990   -31.7430     6.1830 O.3          1 ACP1123   0.0000
    14 C5'         35.8800   -33.0020     6.8070 C.3          1 ACP1123   0.0000
    15 C4'         36.9450   -34.0100     6.4550 C.3          1 ACP1123   0.0000
    16 O4'         36.9020   -34.2860     5.0380 O.3          1 ACP1123   0.0000
    17 C3'         38.3800   -33.5830     6.7460 C.3          1 ACP1123   0.0000
    18 O3'         38.7520   -33.9200     8.0780 O.3          1 ACP1123   0.0000
    19 C2'         39.1720   -34.3760     5.7070 C.3          1 ACP1123   0.0000
    20 O2'         39.4090   -35.7140     6.1290 O.3          1 ACP1123   0.0000
    21 C1'         38.2160   -34.3480     4.5110 C.3          1 ACP1123   0.0000
    22 N9          38.4030   -33.2110     3.6180 N.pl3        1 ACP1123   0.0000
    23 C8          37.7300   -32.0170     3.6450 C.2          1 ACP1123   0.0000
    24 N7          38.0930   -31.1740     2.7090 N.2          1 ACP1123   0.0000
    25 C5          39.0790   -31.8640     2.0140 C.ar         1 ACP1123   0.0000
    26 C6          39.8700   -31.5180     0.9020 C.ar         1 ACP1123   0.0000
    27 N6          39.7850   -30.3500     0.2620 N.pl3        1 ACP1123   0.0000
    28 N1          40.7650   -32.4320     0.4630 N.ar         1 ACP1123   0.0000
    29 C2          40.8510   -33.6050     1.0970 C.ar         1 ACP1123   0.0000
    30 N3          40.1550   -34.0420     2.1500 N.ar         1 ACP1123   0.0000
    31 C4          39.2790   -33.1160     2.5640 C.ar         1 ACP1123   0.0000
    32 H3B1        32.8348   -30.4890    10.7816 H            1 ACP1123   0.0000
    33 H3B2        34.0263   -31.5517    10.4388 H            1 ACP1123   0.0000
    34 H5'1        34.9923   -33.3237     6.4777 H            1 ACP1123   0.0000
    35 H5'2        35.8448   -32.8846     7.7995 H            1 ACP1123   0.0000
    36 H4'         36.7578   -34.8580     6.9509 H            1 ACP1123   0.0000
    37 H3'         38.4891   -32.6010     6.5919 H            1 ACP1123   0.0000
    38 H7          39.7351   -34.0993     8.1143 H            1 ACP1123   0.0000
    39 H2'         40.0315   -33.9148     5.4866 H            1 ACP1123   0.0000
    40 H9          39.9307   -35.7070     6.9821 H            1 ACP1123   0.0000
    41 H1'         38.3198   -35.1947     3.9891 H            1 ACP1123   0.0000
    42 H11         37.0231   -31.8072     4.3205 H            1 ACP1123   0.0000
    43 H12         40.3767   -30.1657    -0.5228 H            1 ACP1123   0.0000
    44 H13         39.1296   -29.6591     0.5673 H            1 ACP1123   0.0000
    45 H14         41.5295   -34.2433     0.7333 H            1 ACP1123   0.0000
@<TRIPOS>BOND
     1    1    2      ar
     2    1    3      ar
     3    1    4      ar
     4    1    8       1
     5    5    6      ar
     6    5    7      ar
     7    5    8       1
     8    5   12       1
     9    9   10      ar
    10    9   11      ar
    11    9   12       1
    12    9   13       1
    13   13   14       1
    14   14   15       1
    15   15   16       1
    16   15   17       1
    17   16   21       1
    18   17   18       1
    19   17   19       1
    20   19   20       1
    21   19   21       1
    22   21   22       1
    23   22   23       1
    24   22   31       1
    25   23   24       2
    26   24   25       1
    27   25   26      ar
    28   25   31      ar
    29   26   27       1
    30   26   28      ar
    31   28   29      ar
    32   29   30      ar
    33   30   31      ar
    34   29   45       1
    35   27   44       1
    36   27   43       1
    37    8   32       1
    38    8   33       1
    39   23   42       1
    40   14   34       1
    41   14   35       1
    42   15   36       1
    43   17   37       1
    44   18   38       1
    45   19   39       1
    46   20   40       1
    47   21   41       1
@<TRIPOS>SUBSTRUCTURE
     1 ACP1123     1 GROUP             4 C     ACP     0 **** ACP C1123
