@<TRIPOS>MOLECULE
4eak_ATP_1_ligand
   43    45     1     0     0
SMALL
NO_CHARGES


@<TRIPOS>ATOM
     1 PG          -8.9360   399.3260   -25.6520 P.3          1 ATP401   0.0000
     2 O1G         -8.1430   399.2470   -26.8730 O.co2        1 ATP401   0.0000
     3 O2G        -10.3720   399.1350   -25.8150 O.co2        1 ATP401  -1.0000
     4 O3G         -8.3070   398.5920   -24.5470 O.co2        1 ATP401  -1.0000
     5 PB          -9.9620   401.8490   -25.5510 P.3          1 ATP401   0.0000
     6 O1B        -10.9390   401.3160   -26.4970 O.co2        1 ATP401   0.0000
     7 O2B         -9.3080   403.1160   -25.7930 O.co2        1 ATP401  -1.0000
     8 O3B         -8.8500   400.8110   -25.2060 O.3          1 ATP401   0.0000
     9 PA         -10.1620   402.2590   -22.7130 P.3          1 ATP401   0.0000
    10 O1A         -9.0480   401.4070   -22.4170 O.co2        1 ATP401   0.0000
    11 O2A        -11.3090   402.1330   -21.8460 O.co2        1 ATP401  -1.0000
    12 O3A        -10.7060   401.9910   -24.1660 O.3          1 ATP401   0.0000
    13 O5'         -9.7190   403.7500   -22.7810 O.3          1 ATP401   0.0000
    14 C5'        -10.5880   404.8360   -22.5580 C.3          1 ATP401   0.0000
    15 C4'         -9.8650   405.9770   -21.8620 C.3          1 ATP401   0.0000
    16 O4'         -9.7450   405.6800   -20.5010 O.3          1 ATP401   0.0000
    17 C3'         -8.4790   406.2190   -22.3680 C.3          1 ATP401   0.0000
    18 O3'         -8.2590   407.5920   -22.5720 O.3          1 ATP401   0.0000
    19 C2'         -7.5810   405.7860   -21.2590 C.3          1 ATP401   0.0000
    20 O2'         -6.5380   406.7090   -21.1210 O.3          1 ATP401   0.0000
    21 C1'         -8.4320   405.8310   -20.0490 C.3          1 ATP401   0.0000
    22 N9          -8.1410   404.6680   -19.2180 N.pl3        1 ATP401   0.0000
    23 C8          -8.1410   403.4250   -19.6260 C.2          1 ATP401   0.0000
    24 N7          -7.8520   402.6050   -18.6380 N.2          1 ATP401   0.0000
    25 C5          -7.6460   403.3370   -17.5590 C.ar         1 ATP401   0.0000
    26 C6          -7.3000   403.1040   -16.1620 C.ar         1 ATP401   0.0000
    27 N6          -7.0980   401.8890   -15.6560 N.pl3        1 ATP401   0.0000
    28 N1          -7.1980   404.1600   -15.3960 N.ar         1 ATP401   0.0000
    29 C2          -7.3920   405.3880   -15.8180 C.ar         1 ATP401   0.0000
    30 N3          -7.7040   405.6720   -17.0560 N.ar         1 ATP401   0.0000
    31 C4          -7.8460   404.7020   -17.9520 C.ar         1 ATP401   0.0000
    32 H5'1       -11.3495   404.5333   -21.9849 H            1 ATP401   0.0000
    33 H5'2       -10.9399   405.1592   -23.4365 H            1 ATP401   0.0000
    34 H4'        -10.4011   406.8146   -21.9668 H            1 ATP401   0.0000
    35 H3'         -8.3019   405.6964   -23.2020 H            1 ATP401   0.0000
    36 H5          -7.3285   407.7339   -22.9098 H            1 ATP401   0.0000
    37 H2'         -7.2286   404.8639   -21.4187 H            1 ATP401   0.0000
    38 H7          -6.0182   406.7547   -21.9741 H            1 ATP401   0.0000
    39 H1'         -8.3111   406.6855   -19.5439 H            1 ATP401   0.0000
    40 H9          -8.3348   403.1364   -20.5636 H            1 ATP401   0.0000
    41 H10         -6.8624   401.7825   -14.6900 H            1 ATP401   0.0000
    42 H11         -7.1818   401.0830   -16.2420 H            1 ATP401   0.0000
    43 H12         -7.2971   406.1389   -15.1644 H            1 ATP401   0.0000
@<TRIPOS>BOND
     1    1    2      ar
     2    1    3      ar
     3    1    4      ar
     4    1    8       1
     5    5    6      ar
     6    5    7      ar
     7    5    8       1
     8    5   12       1
     9    9   10      ar
    10    9   11      ar
    11    9   12       1
    12    9   13       1
    13   13   14       1
    14   14   15       1
    15   15   16       1
    16   15   17       1
    17   16   21       1
    18   17   18       1
    19   17   19       1
    20   19   20       1
    21   19   21       1
    22   21   22       1
    23   22   23       1
    24   22   31       1
    25   23   24       2
    26   24   25       1
    27   25   26      ar
    28   25   31      ar
    29   26   27       1
    30   26   28      ar
    31   28   29      ar
    32   29   30      ar
    33   30   31      ar
    34   29   43       1
    35   27   42       1
    36   27   41       1
    37   23   40       1
    38   14   32       1
    39   14   33       1
    40   15   34       1
    41   17   35       1
    42   18   36       1
    43   19   37       1
    44   20   38       1
    45   21   39       1
@<TRIPOS>SUBSTRUCTURE
     1 ATP401      1 GROUP             4 C     ATP     0 **** ATP C 401
