@<TRIPOS>MOLECULE
4x30_T44_1_ligand
   35    36     1     0     0
SMALL
NO_CHARGES


@<TRIPOS>ATOM
     1 C1          -9.2670     7.9080   -17.7580 C.ar         1 T44401   0.0000
     2 C2          -9.9710     8.6610   -18.6790 C.ar         1 T44401   0.0000
     3 C3          -9.4100     9.0290   -19.8970 C.ar         1 T44401   0.0000
     4 C4          -8.0540     8.5980   -20.2250 C.ar         1 T44401   0.0000
     5 C5          -7.3740     7.8050   -19.2130 C.ar         1 T44401   0.0000
     6 C6          -7.9650     7.4780   -18.0030 C.ar         1 T44401   0.0000
     7 C7          -9.9670     7.5270   -16.4670 C.3          1 T44401   0.0000
     8 C8         -11.0260     6.4240   -16.7140 C.3          1 T44401   0.0000
     9 C9         -12.1160     6.7750   -17.7250 C.2          1 T44401   0.0000
    10 C1'         -7.7080     8.0490   -22.5070 C.ar         1 T44401   0.0000
    11 C2'         -8.1340     6.6980   -22.3950 C.ar         1 T44401   0.0000
    12 C3'         -8.3500     5.9220   -23.5390 C.ar         1 T44401   0.0000
    13 C4'         -8.1700     6.4830   -24.8750 C.ar         1 T44401   0.0000
    14 C5'         -7.7510     7.8710   -24.9230 C.ar         1 T44401   0.0000
    15 C6'         -7.5430     8.6050   -23.7610 C.ar         1 T44401   0.0000
    16 N8         -10.3730     5.1950   -17.1110 N.4          1 T44401   1.0000
    17 O4          -7.4640     8.8920   -21.4220 O.3          1 T44401   0.0000
    18 O4'         -8.3770     5.7270   -26.0010 O.3          1 T44401   0.0000
    19 O9         -12.1310     6.3940   -18.9400 O.co2        1 T44401   0.0000
    20 O10        -13.0300     7.5050   -17.3180 O.co2        1 T44401  -1.0000
    21 I3         -10.5020    10.2380   -21.1900 I            1 T44401   0.0000
    22 I3'         -8.9380     3.9250   -23.4920 I            1 T44401   0.0000
    23 I5          -5.4300     7.2490   -19.6380 I            1 T44401   0.0000
    24 I5'         -7.5070     8.6730   -26.8170 I            1 T44401   0.0000
    25 H1         -10.9048     8.9475   -18.4645 H            1 T44401   0.0000
    26 H2          -7.4669     6.9442   -17.3197 H            1 T44401   0.0000
    27 H3         -10.4187     8.3352   -16.0892 H            1 T44401   0.0000
    28 H4          -9.2886     7.1888   -15.8148 H            1 T44401   0.0000
    29 H5         -11.4792     6.2487   -15.8400 H            1 T44401   0.0000
    30 H2'         -8.2808     6.2982   -21.4902 H            1 T44401   0.0000
    31 H6'         -7.2660     9.5630   -23.8348 H            1 T44401   0.0000
    32 H8         -10.9194     4.4142   -16.8078 H            1 T44401   0.0000
    33 H9         -10.2827     5.1721   -18.1066 H            1 T44401   0.0000
    34 H4'         -8.6572     4.7708   -25.9167 H            1 T44401   0.0000
    35 H11         -9.4658     5.1494   -16.6929 H            1 T44401   0.0000
@<TRIPOS>BOND
     1    1    2      ar
     2    1    6      ar
     3    1    7       1
     4    2    3      ar
     5    3    4      ar
     6    3   21       1
     7    4    5      ar
     8    4   17       1
     9    5    6      ar
    10    5   23       1
    11    7    8       1
    12    8    9       1
    13    8   16       1
    14    9   19      ar
    15    9   20      ar
    16   10   11      ar
    17   10   15      ar
    18   10   17       1
    19   11   12      ar
    20   12   13      ar
    21   12   22       1
    22   13   14      ar
    23   13   18       1
    24   14   15      ar
    25   14   24       1
    26    2   25       1
    27    6   26       1
    28    7   27       1
    29    7   28       1
    30    8   29       1
    31   11   30       1
    32   15   31       1
    33   16   32       1
    34   16   33       1
    35   18   34       1
    36   16   35       1
@<TRIPOS>SUBSTRUCTURE
     1 T44401      1 GROUP             4 A     T44     0 **** T44 A 401
