@<TRIPOS>MOLECULE
1fk8_NAD_1_ligand
   70    74     1     0     0
SMALL
NO_CHARGES


@<TRIPOS>ATOM
     1 PA         -16.9880     9.0620   -29.5020 P.3          1 NAD800   0.0000
     2 O1A        -17.8500     8.8000   -30.6900 O.co2        1 NAD800   0.0000
     3 O2A        -17.4880    10.0170   -28.5030 O.co2        1 NAD800  -1.0000
     4 O5B        -15.5120     9.4690   -29.9940 O.3          1 NAD800   0.0000
     5 C5B        -14.8860     8.6940   -31.0130 C.3          1 NAD800   0.0000
     6 C4B        -14.1230     9.6520   -31.8520 C.3          1 NAD800   0.0000
     7 O4B        -13.5280     8.8840   -32.9250 O.3          1 NAD800   0.0000
     8 C3B        -14.9960    10.7490   -32.4650 C.3          1 NAD800   0.0000
     9 O3B        -14.5010    12.0930   -32.1970 O.3          1 NAD800   0.0000
    10 C2B        -14.9990    10.4220   -33.9460 C.3          1 NAD800   0.0000
    11 O2B        -15.2680    11.5440   -34.8370 O.3          1 NAD800   0.0000
    12 C1B        -13.6260     9.7440   -34.0910 C.3          1 NAD800   0.0000
    13 N9A        -13.5110     8.9370   -35.3370 N.pl3        1 NAD800   0.0000
    14 C8A        -14.3290     7.9230   -35.7340 C.2          1 NAD800   0.0000
    15 N7A        -13.9550     7.4150   -36.9150 N.2          1 NAD800   0.0000
    16 C5A        -12.8960     8.1370   -37.2280 C.ar         1 NAD800   0.0000
    17 C6A        -12.1290     7.9920   -38.4040 C.ar         1 NAD800   0.0000
    18 N6A        -12.4550     7.0680   -39.3030 N.pl3        1 NAD800   0.0000
    19 N1A        -11.0520     8.8350   -38.5670 N.ar         1 NAD800   0.0000
    20 C2A        -10.7540     9.7680   -37.6250 C.ar         1 NAD800   0.0000
    21 N3A        -11.4970     9.9030   -36.5010 N.ar         1 NAD800   0.0000
    22 C4A        -12.5840     9.1010   -36.2680 C.ar         1 NAD800   0.0000
    23 O3         -16.6290     7.6940   -28.7400 O.3          1 NAD800   0.0000
    24 PN         -16.0970     7.3530   -27.2720 P.3          1 NAD800   0.0000
    25 O1N        -17.0460     6.4240   -26.5960 O.co2        1 NAD800   0.0000
    26 O2N        -15.7030     8.5970   -26.5410 O.co2        1 NAD800  -1.0000
    27 O5D        -14.7690     6.5080   -27.5310 O.3          1 NAD800   0.0000
    28 C5D        -13.4660     7.0580   -27.6000 C.3          1 NAD800   0.0000
    29 C4D        -12.5250     5.8710   -27.4040 C.3          1 NAD800   0.0000
    30 O4D        -12.9120     5.0780   -26.2420 O.3          1 NAD800   0.0000
    31 C3D        -12.5060     4.8810   -28.5940 C.3          1 NAD800   0.0000
    32 O3D        -11.1620     4.4090   -28.8970 O.3          1 NAD800   0.0000
    33 C2D        -13.4300     3.7600   -28.1460 C.3          1 NAD800   0.0000
    34 O2D        -13.3010     2.5430   -28.8600 O.3          1 NAD800   0.0000
    35 C1D        -13.0720     3.6960   -26.6670 C.3          1 NAD800   0.0000
    36 N1N        -14.0700     3.0130   -25.7810 N.ar         1 NAD800   1.0000
    37 C2N        -15.4520     3.4240   -25.6660 C.ar         1 NAD800   0.0000
    38 C3N        -16.3280     2.6970   -24.7930 C.ar         1 NAD800   0.0000
    39 C7N        -17.8380     3.0540   -24.5920 C.2          1 NAD800   0.0000
    40 O7N        -18.6750     2.1560   -24.4100 O.2          1 NAD800   0.0000
    41 N7N        -18.1920     4.3450   -24.6180 N.am         1 NAD800   0.0000
    42 C4N        -15.8030     1.5940   -24.0690 C.ar         1 NAD800   0.0000
    43 C5N        -14.4470     1.2030   -24.1910 C.ar         1 NAD800   0.0000
    44 C6N        -13.5780     1.9060   -25.0400 C.ar         1 NAD800   0.0000
    45 H5B1       -15.5756     8.2237   -31.5637 H            1 NAD800   0.0000
    46 H5B2       -14.2683     8.0209   -30.6064 H            1 NAD800   0.0000
    47 H4B        -13.3998    10.0712   -31.3031 H            1 NAD800   0.0000
    48 H3B        -15.9266    10.6651   -32.1087 H            1 NAD800   0.0000
    49 H5         -14.3036    12.5542   -33.0621 H            1 NAD800   0.0000
    50 H2B        -15.7017     9.7286   -34.1054 H            1 NAD800   0.0000
    51 H7         -14.4064    11.9876   -35.0839 H            1 NAD800   0.0000
    52 H1B        -12.9025    10.4339   -34.0656 H            1 NAD800   0.0000
    53 H8A        -15.1140     7.5973   -35.2071 H            1 NAD800   0.0000
    54 H6A1       -11.9106     6.9665   -40.1357 H            1 NAD800   0.0000
    55 H6A2       -13.2445     6.4746   -39.1464 H            1 NAD800   0.0000
    56 H2A         -9.9673    10.3692   -37.7652 H            1 NAD800   0.0000
    57 H5D1       -13.3319     7.7359   -26.8772 H            1 NAD800   0.0000
    58 H5D2       -13.3117     7.4855   -28.4907 H            1 NAD800   0.0000
    59 H4D        -11.5979     6.2175   -27.2609 H            1 NAD800   0.0000
    60 H3D        -12.8916     5.3260   -29.4022 H            1 NAD800   0.0000
    61 H17        -10.5111     4.8274   -28.2636 H            1 NAD800   0.0000
    62 H2D        -14.3748     4.0768   -28.2292 H            1 NAD800   0.0000
    63 H19        -13.5294     1.7777   -28.2583 H            1 NAD800   0.0000
    64 H1D        -12.1920     3.2304   -26.5727 H            1 NAD800   0.0000
    65 H2N        -15.7927     4.2055   -26.1887 H            1 NAD800   0.0000
    66 H7N1       -19.1498     4.6034   -24.4924 H            1 NAD800   0.0000
    67 H7N2       -17.4986     5.0508   -24.7630 H            1 NAD800   0.0000
    68 H4N        -16.4055     1.0806   -23.4579 H            1 NAD800   0.0000
    69 H5N        -14.1066     0.4210   -23.6689 H            1 NAD800   0.0000
    70 H6N        -12.6205     1.6296   -25.1224 H            1 NAD800   0.0000
@<TRIPOS>BOND
     1    1    2      ar
     2    1    3      ar
     3    1    4       1
     4    1   23       1
     5    4    5       1
     6    5    6       1
     7    6    7       1
     8    6    8       1
     9    7   12       1
    10    8    9       1
    11    8   10       1
    12   10   11       1
    13   10   12       1
    14   12   13       1
    15   13   14       1
    16   13   22       1
    17   14   15       2
    18   15   16       1
    19   16   17      ar
    20   16   22      ar
    21   17   18       1
    22   17   19      ar
    23   19   20      ar
    24   20   21      ar
    25   21   22      ar
    26   23   24       1
    27   24   25      ar
    28   24   26      ar
    29   24   27       1
    30   27   28       1
    31   28   29       1
    32   29   30       1
    33   29   31       1
    34   30   35       1
    35   31   32       1
    36   31   33       1
    37   33   34       1
    38   33   35       1
    39   35   36       1
    40   36   37      ar
    41   36   44      ar
    42   37   38      ar
    43   38   39       1
    44   38   42      ar
    45   39   40       2
    46   39   41      am
    47   42   43      ar
    48   43   44      ar
    49   44   70       1
    50    5   45       1
    51    5   46       1
    52    6   47       1
    53    8   48       1
    54    9   49       1
    55   10   50       1
    56   11   51       1
    57   12   52       1
    58   14   53       1
    59   18   54       1
    60   18   55       1
    61   20   56       1
    62   43   69       1
    63   28   57       1
    64   28   58       1
    65   29   59       1
    66   31   60       1
    67   32   61       1
    68   33   62       1
    69   34   63       1
    70   35   64       1
    71   37   65       1
    72   41   66       1
    73   41   67       1
    74   42   68       1
@<TRIPOS>SUBSTRUCTURE
     1 NAD800      1 GROUP             4 A     NAD     0 **** NAD A 800
