@<TRIPOS>MOLECULE
2ifa_FMN_2_ligand
   50    52     1     0     0
SMALL
NO_CHARGES


@<TRIPOS>ATOM
     1 N1          14.4240    29.0690    30.9720 N.2          1 FMN502   0.0000
     2 C2          13.8440    28.7500    29.7420 C.2          1 FMN502   0.0000
     3 O2          14.3200    27.9410    28.9810 O.2          1 FMN502   0.0000
     4 N3          12.6290    29.4360    29.4410 N.pl3        1 FMN502   0.0000
     5 C4          11.9540    30.3990    30.2670 C.2          1 FMN502   0.0000
     6 O4          10.9220    30.8940    29.8880 O.2          1 FMN502   0.0000
     7 C4A         12.5610    30.6760    31.5040 C.2          1 FMN502   0.0000
     8 N5          12.0630    31.5440    32.4710 N.2          1 FMN502   0.0000
     9 C5A         12.5200    31.8790    33.7290 C.ar         1 FMN502   0.0000
    10 C6          11.7710    32.8250    34.6090 C.ar         1 FMN502   0.0000
    11 C7          12.3010    33.1080    35.9670 C.ar         1 FMN502   0.0000
    12 C7M         11.4800    34.0720    36.8240 C.3          1 FMN502   0.0000
    13 C8          13.5950    32.4280    36.4100 C.ar         1 FMN502   0.0000
    14 C8M         14.3070    32.5750    37.7810 C.3          1 FMN502   0.0000
    15 C9          14.2680    31.5310    35.4790 C.ar         1 FMN502   0.0000
    16 C9A         13.7620    31.2310    34.1380 C.ar         1 FMN502   0.0000
    17 N10         14.3450    30.3190    33.1270 N.pl3        1 FMN502   0.0000
    18 C10         13.8250    29.9810    31.8340 C.2          1 FMN502   0.0000
    19 C1'         15.6630    29.6280    33.5110 C.3          1 FMN502   0.0000
    20 C2'         16.9040    30.5850    33.4770 C.3          1 FMN502   0.0000
    21 O2'         17.1460    31.1560    32.1850 O.3          1 FMN502   0.0000
    22 C3'         18.1480    29.8250    33.9400 C.3          1 FMN502   0.0000
    23 O3'         17.9070    29.4640    35.3030 O.3          1 FMN502   0.0000
    24 C4'         19.4550    30.6780    33.9290 C.3          1 FMN502   0.0000
    25 O4'         19.9590    30.9250    32.6000 O.3          1 FMN502   0.0000
    26 C5'         20.5780    30.0180    34.6810 C.3          1 FMN502   0.0000
    27 O5'         20.7520    28.7270    34.2990 O.3          1 FMN502   0.0000
    28 P           20.7940    27.5600    35.3120 P.3          1 FMN502   0.0000
    29 O1P         21.7160    27.8980    36.3880 O.co2        1 FMN502   0.0000
    30 O2P         19.4110    27.3780    35.7700 O.co2        1 FMN502  -1.0000
    31 O3P         21.2210    26.5020    34.4700 O.co2        1 FMN502  -1.0000
    32 H1          12.2021    29.2240    28.5619 H            1 FMN502   0.0000
    33 H2          10.9288    33.2595    34.2899 H            1 FMN502   0.0000
    34 H7M1        11.9248    34.1902    37.7118 H            1 FMN502   0.0000
    35 H7M2        11.4165    34.9569    36.3625 H            1 FMN502   0.0000
    36 H7M3        10.5618    33.6994    36.9582 H            1 FMN502   0.0000
    37 H8M1        15.1342    32.0131    37.7890 H            1 FMN502   0.0000
    38 H8M2        14.5534    33.5330    37.9276 H            1 FMN502   0.0000
    39 H8M3        13.6923    32.2736    38.5099 H            1 FMN502   0.0000
    40 H9          15.1204    31.0975    35.7715 H            1 FMN502   0.0000
    41 H1'1        15.8248    28.8770    32.8708 H            1 FMN502   0.0000
    42 H1'2        15.5705    29.2624    34.4372 H            1 FMN502   0.0000
    43 H2'         16.7384    31.3319    34.1210 H            1 FMN502   0.0000
    44 H13         18.1251    31.3267    32.0741 H            1 FMN502   0.0000
    45 H3'         18.2721    29.0023    33.3853 H            1 FMN502   0.0000
    46 H15         18.3868    28.6118    35.5120 H            1 FMN502   0.0000
    47 H4'         19.2606    31.5585    34.3613 H            1 FMN502   0.0000
    48 H17         20.5903    30.1938    32.3417 H            1 FMN502   0.0000
    49 H5'1        20.3698    30.0407    35.6588 H            1 FMN502   0.0000
    50 H5'2        21.4236    30.5231    34.5085 H            1 FMN502   0.0000
@<TRIPOS>BOND
     1    1    2       1
     2    1   18       2
     3    2    3       2
     4    2    4       1
     5    4    5       1
     6    5    6       2
     7    5    7       1
     8    7    8       2
     9    7   18       1
    10    8    9       1
    11    9   10      ar
    12    9   16      ar
    13   10   11      ar
    14   11   12       1
    15   11   13      ar
    16   13   14       1
    17   13   15      ar
    18   15   16      ar
    19   16   17       1
    20   17   18       1
    21   17   19       1
    22   19   20       1
    23   20   21       1
    24   20   22       1
    25   22   23       1
    26   22   24       1
    27   24   25       1
    28   24   26       1
    29   26   27       1
    30   27   28       1
    31   28   29      ar
    32   28   30      ar
    33   28   31      ar
    34    4   32       1
    35   10   33       1
    36   12   34       1
    37   12   35       1
    38   12   36       1
    39   14   37       1
    40   14   38       1
    41   14   39       1
    42   15   40       1
    43   19   41       1
    44   19   42       1
    45   20   43       1
    46   21   44       1
    47   22   45       1
    48   23   46       1
    49   24   47       1
    50   25   48       1
    51   26   49       1
    52   26   50       1
@<TRIPOS>SUBSTRUCTURE
     1 FMN502      1 GROUP             4 B     FMN     0 **** FMN B 502
