@<TRIPOS>MOLECULE
4uox_PLP_2_ligand
   25    25     1     0     0
SMALL
NO_CHARGES


@<TRIPOS>ATOM
     1 N1         -15.9420    34.1820    -3.0190 N.ar         1 PLP800   1.0000
     2 C2         -15.6220    35.2970    -2.3010 C.ar         1 PLP800   0.0000
     3 C2A        -15.7930    36.6660    -2.9070 C.3          1 PLP800   0.0000
     4 C3         -15.1110    35.1750    -0.9020 C.ar         1 PLP800   0.0000
     5 O3         -14.7840    36.2730    -0.1600 O.3          1 PLP800   0.0000
     6 C4         -14.9800    33.8100    -0.3310 C.ar         1 PLP800   0.0000
     7 C4A        -14.4590    33.6090     1.0570 C.2          1 PLP800   0.0000
     8 O4A        -13.8210    34.4940     1.6310 O.2          1 PLP800   0.0000
     9 C5         -15.3630    32.6770    -1.2270 C.ar         1 PLP800   0.0000
    10 C6         -15.8290    32.9250    -2.5280 C.ar         1 PLP800   0.0000
    11 C5A        -15.2520    31.2520    -0.7430 C.3          1 PLP800   0.0000
    12 O4P        -15.9870    31.0920     0.4700 O.3          1 PLP800   0.0000
    13 P          -15.6790    29.8130     1.4120 P.3          1 PLP800   0.0000
    14 O1P        -14.3760    30.1510     2.0990 O.co2        1 PLP800   0.0000
    15 O2P        -16.8990    29.7030     2.3210 O.co2        1 PLP800  -1.0000
    16 O3P        -15.5350    28.6520     0.4500 O.co2        1 PLP800  -1.0000
    17 H2A1       -15.5123    37.3610    -2.2450 H            1 PLP800   0.0000
    18 H2A2       -15.2272    36.7400    -3.7282 H            1 PLP800   0.0000
    19 H2A3       -16.7530    36.8055    -3.1499 H            1 PLP800   0.0000
    20 H4         -14.4443    36.1622     0.7740 H            1 PLP800   0.0000
    21 H4A        -14.6310    32.7430     1.5266 H            1 PLP800   0.0000
    22 H6         -16.0846    32.1518    -3.1083 H            1 PLP800   0.0000
    23 H5A1       -14.2904    31.0313    -0.5796 H            1 PLP800   0.0000
    24 H5A2       -15.6218    30.6359    -1.4385 H            1 PLP800   0.0000
    25 H9         -16.2766    34.2987    -3.9541 H            1 PLP800   0.0000
@<TRIPOS>BOND
     1    1    2      ar
     2    1   10      ar
     3    2    3       1
     4    2    4      ar
     5    4    5       1
     6    4    6      ar
     7    6    7       1
     8    6    9      ar
     9    7    8       2
    10    9   10      ar
    11    9   11       1
    12   11   12       1
    13   12   13       1
    14   13   14      ar
    15   13   15      ar
    16   13   16      ar
    17    3   17       1
    18    3   18       1
    19    3   19       1
    20    5   20       1
    21    7   21       1
    22   10   22       1
    23   11   23       1
    24   11   24       1
    25    1   25       1
@<TRIPOS>SUBSTRUCTURE
     1 PLP800      1 GROUP             4 D     PLP     0 **** PLP D 800
