@<TRIPOS>MOLECULE
1fcy_564_1_ligand
   54    57     1     0     0
SMALL
NO_CHARGES


@<TRIPOS>ATOM
     1 C1          34.6330    18.3790    88.3370 C.2          1 564450   0.0000
     2 C2          35.5520    17.4410    87.7130 C.ar         1 564450   0.0000
     3 C3          35.6220    16.1120    88.2530 C.ar         1 564450   0.0000
     4 C4          36.5060    15.2120    87.6690 C.ar         1 564450   0.0000
     5 C5          37.3130    15.5740    86.5590 C.ar         1 564450   0.0000
     6 C10         37.2340    16.8700    86.0530 C.ar         1 564450   0.0000
     7 C11         36.3560    17.8050    86.6300 C.ar         1 564450   0.0000
     8 C15         42.7800    13.8630    81.8470 C.ar         1 564450   0.0000
     9 C16         43.1920    13.0000    80.6640 C.3          1 564450   0.0000
    10 C17         44.6050    13.3080    80.2110 C.3          1 564450   0.0000
    11 C18         45.0020    14.7270    80.2690 C.3          1 564450   0.0000
    12 C19         44.8770    15.3370    81.6410 C.3          1 564450   0.0000
    13 C20         43.5400    14.9400    82.3100 C.ar         1 564450   0.0000
    14 C23         42.2110    13.2960    79.5200 C.3          1 564450   0.0000
    15 C24         43.1640    11.5340    81.0310 C.3          1 564450   0.0000
    16 C25         44.8570    16.8250    81.3310 C.3          1 564450   0.0000
    17 C26         46.0300    15.0210    82.6060 C.3          1 564450   0.0000
    18 O1          34.1880    18.1160    89.4160 O.co2        1 564450   0.0000
    19 O2          34.3400    19.4520    87.6620 O.co2        1 564450  -1.0000
    20 C6          38.2000    14.6500    85.9490 C.ar         1 564450   0.0000
    21 C7          39.0090    14.9880    84.8700 C.ar         1 564450   0.0000
    22 C8          38.8870    16.3130    84.3900 C.ar         1 564450   0.0000
    23 C9          38.0310    17.2340    84.9560 C.ar         1 564450   0.0000
    24 C13         41.1550    14.3290    83.5980 C.ar         1 564450   0.0000
    25 C14         41.5880    13.5660    82.4990 C.ar         1 564450   0.0000
    26 C21         43.1150    15.6960    83.4000 C.ar         1 564450   0.0000
    27 C22         41.9660    15.3780    84.0030 C.ar         1 564450   0.0000
    28 C12         39.9170    13.9910    84.2450 C.2          1 564450   0.0000
    29 O3          39.5140    12.7970    84.3100 O.2          1 564450   0.0000
    30 H1          35.0506    15.8415    89.0278 H            1 564450   0.0000
    31 H2          36.5751    14.2861    88.0404 H            1 564450   0.0000
    32 H3          36.3070    18.7342    86.2636 H            1 564450   0.0000
    33 H4          44.6971    13.0020    79.2634 H            1 564450   0.0000
    34 H5          45.2332    12.7896    80.7912 H            1 564450   0.0000
    35 H6          44.4205    15.2432    79.6401 H            1 564450   0.0000
    36 H7          45.9557    14.7999    79.9771 H            1 564450   0.0000
    37 H8          42.4528    12.7436    78.7223 H            1 564450   0.0000
    38 H9          41.2812    13.0713    79.8117 H            1 564450   0.0000
    39 H10         42.2602    14.2658    79.2812 H            1 564450   0.0000
    40 H11         43.4378    10.9870    80.2399 H            1 564450   0.0000
    41 H12         43.7974    11.3674    81.7867 H            1 564450   0.0000
    42 H13         42.2383    11.2777    81.3092 H            1 564450   0.0000
    43 H14         44.7753    17.3419    82.1831 H            1 564450   0.0000
    44 H15         45.7050    17.0801    80.8664 H            1 564450   0.0000
    45 H16         44.0776    17.0318    80.7396 H            1 564450   0.0000
    46 H17         45.8601    15.4659    83.4853 H            1 564450   0.0000
    47 H18         46.0916    14.0318    82.7392 H            1 564450   0.0000
    48 H19         46.8888    15.3596    82.2215 H            1 564450   0.0000
    49 H20         38.2452    13.7183    86.3095 H            1 564450   0.0000
    50 H21         39.4442    16.5932    83.6083 H            1 564450   0.0000
    51 H22         37.9779    18.1612    84.5851 H            1 564450   0.0000
    52 H23         41.0307    12.7987    82.1817 H            1 564450   0.0000
    53 H24         43.6625    16.4664    83.7268 H            1 564450   0.0000
    54 H25         41.6756    15.9255    84.7878 H            1 564450   0.0000
@<TRIPOS>BOND
     1    1    2       1
     2    1   18      ar
     3    1   19      ar
     4    2    3      ar
     5    2    7      ar
     6    3    4      ar
     7    4    5      ar
     8    5    6      ar
     9    5   20      ar
    10    6    7      ar
    11    6   23      ar
    12    8    9       1
    13    8   13      ar
    14    8   25      ar
    15    9   10       1
    16    9   14       1
    17    9   15       1
    18   10   11       1
    19   11   12       1
    20   12   13       1
    21   12   16       1
    22   12   17       1
    23   13   26      ar
    24   20   21      ar
    25   21   22      ar
    26   21   28       1
    27   22   23      ar
    28   24   25      ar
    29   24   27      ar
    30   24   28       1
    31   26   27      ar
    32   28   29       2
    33    3   30       1
    34    4   31       1
    35    7   32       1
    36   10   33       1
    37   10   34       1
    38   11   35       1
    39   11   36       1
    40   14   37       1
    41   14   38       1
    42   14   39       1
    43   15   40       1
    44   15   41       1
    45   15   42       1
    46   16   43       1
    47   16   44       1
    48   16   45       1
    49   17   46       1
    50   17   47       1
    51   17   48       1
    52   27   54       1
    53   20   49       1
    54   22   50       1
    55   23   51       1
    56   25   52       1
    57   26   53       1
@<TRIPOS>SUBSTRUCTURE
     1 564450      1 GROUP             4 A     564     0 **** 564 A 450
