@<TRIPOS>MOLECULE
1ojt_FAD_1_ligand
   86    91     1     0     0
SMALL
NO_CHARGES


@<TRIPOS>ATOM
     1 PA         113.4540    78.6630    29.4340 P.3          1 FAD600   0.0000
     2 O1A        113.4880    80.1420    29.7390 O.co2        1 FAD600   0.0000
     3 O2A        113.7850    78.9480    28.0960 O.co2        1 FAD600  -1.0000
     4 O5B        114.6210    77.7440    30.0710 O.3          1 FAD600   0.0000
     5 C5B        115.1680    76.5860    29.3770 C.3          1 FAD600   0.0000
     6 C4B        116.4500    76.2510    30.2690 C.3          1 FAD600   0.0000
     7 O4B        116.9180    74.9210    30.2210 O.3          1 FAD600   0.0000
     8 C3B        117.5710    77.2470    29.8750 C.3          1 FAD600   0.0000
     9 O3B        117.9850    77.7240    31.1970 O.3          1 FAD600   0.0000
    10 C2B        118.6180    76.4240    29.2520 C.3          1 FAD600   0.0000
    11 O2B        119.9470    76.6100    29.9000 O.3          1 FAD600   0.0000
    12 C1B        118.2800    74.9860    29.8130 C.3          1 FAD600   0.0000
    13 N9A        118.4430    74.0940    28.6050 N.pl3        1 FAD600   0.0000
    14 C8A        118.0110    74.2420    27.3230 C.2          1 FAD600   0.0000
    15 N7A        118.3740    73.2070    26.5720 N.2          1 FAD600   0.0000
    16 C5A        119.0850    72.3610    27.4450 C.ar         1 FAD600   0.0000
    17 C6A        119.7450    71.1030    27.3180 C.ar         1 FAD600   0.0000
    18 N6A        119.8100    70.4490    26.1860 N.pl3        1 FAD600   0.0000
    19 N1A        120.3570    70.5490    28.3870 N.ar         1 FAD600   0.0000
    20 C2A        120.2940    71.2130    29.5320 C.ar         1 FAD600   0.0000
    21 N3A        119.6910    72.4150    29.8390 N.ar         1 FAD600   0.0000
    22 C4A        119.1180    72.9040    28.6860 C.ar         1 FAD600   0.0000
    23 N1         107.5050    85.8760    29.6130 N.2          1 FAD600   0.0000
    24 C2         106.5880    86.3550    30.4830 C.2          1 FAD600   0.0000
    25 O2         105.6250    85.6220    30.7800 O.3          1 FAD600   0.0000
    26 N3         106.6160    87.5690    31.0730 N.am         1 FAD600   0.0000
    27 C4         107.6700    88.3760    30.7370 C.2          1 FAD600   0.0000
    28 O4         107.6310    89.4980    31.3120 O.2          1 FAD600   0.0000
    29 C4X        108.6890    87.9510    29.8300 C.2          1 FAD600   0.0000
    30 N5         109.7920    88.7190    29.4520 N.2          1 FAD600   0.0000
    31 C5X        110.7000    88.1830    28.5850 C.ar         1 FAD600   0.0000
    32 C6         111.8340    89.0210    28.2270 C.ar         1 FAD600   0.0000
    33 C7         112.7940    88.5360    27.3560 C.ar         1 FAD600   0.0000
    34 C7M        113.9180    89.5520    27.0680 C.3          1 FAD600   0.0000
    35 C8         112.6790    87.2490    26.8250 C.ar         1 FAD600   0.0000
    36 C8M        113.6670    86.6220    25.8470 C.3          1 FAD600   0.0000
    37 C9         111.5970    86.4720    27.1760 C.ar         1 FAD600   0.0000
    38 C9A        110.5520    86.9180    28.0850 C.ar         1 FAD600   0.0000
    39 N10        109.3710    86.1690    28.2770 N.pl3        1 FAD600   0.0000
    40 C10        108.3440    86.8300    29.0520 C.3          1 FAD600   0.0000
    41 C1'        109.1840    84.8300    28.0230 C.3          1 FAD600   0.0000
    42 C2'        110.1980    83.7620    28.6240 C.3          1 FAD600   0.0000
    43 O2'        110.7510    84.2740    29.8320 O.3          1 FAD600   0.0000
    44 C3'        109.3700    82.5010    29.0780 C.3          1 FAD600   0.0000
    45 O3'        108.4470    82.1390    28.1070 O.3          1 FAD600   0.0000
    46 C4'        110.2510    81.2600    29.2760 C.3          1 FAD600   0.0000
    47 O4'        111.1340    81.5260    30.3600 O.3          1 FAD600   0.0000
    48 C5'        109.3780    80.1530    29.6790 C.3          1 FAD600   0.0000
    49 O5'        110.0740    79.1220    30.4890 O.3          1 FAD600   0.0000
    50 P          110.6580    77.8980    29.6400 P.3          1 FAD600   0.0000
    51 O1P        110.4010    77.0450    30.7550 O.co2        1 FAD600   0.0000
    52 O2P        109.8100    77.0210    28.8110 O.co2        1 FAD600  -1.0000
    53 O3P        112.1480    77.7540    29.1780 O.3          1 FAD600   0.0000
    54 H5B1       115.4262    76.8121    28.4378 H            1 FAD600   0.0000
    55 H5B2       114.5194    75.8249    29.3703 H            1 FAD600   0.0000
    56 H4B        116.2059    76.4432    31.2195 H            1 FAD600   0.0000
    57 H3B        117.2473    77.9821    29.2793 H            1 FAD600   0.0000
    58 H5         118.7145    77.1379    31.5494 H            1 FAD600   0.0000
    59 H2B        118.6395    76.4780    28.2537 H            1 FAD600   0.0000
    60 H7         120.0500    75.9505    30.6446 H            1 FAD600   0.0000
    61 H1B        118.8998    74.7231    30.5524 H            1 FAD600   0.0000
    62 H8A        117.4887    75.0268    26.9895 H            1 FAD600   0.0000
    63 H6A1       120.2836    69.5693    26.1433 H            1 FAD600   0.0000
    64 H6A2       119.3861    70.8291    25.3639 H            1 FAD600   0.0000
    65 H2A        120.7595    70.7705    30.2985 H            1 FAD600   0.0000
    66 H13        105.9091    87.8615    31.7170 H            1 FAD600   0.0000
    67 H14        111.9193    89.9417    28.6079 H            1 FAD600   0.0000
    68 H7M1       114.5789    89.1476    26.4358 H            1 FAD600   0.0000
    69 H7M2       113.5259    90.3757    26.6584 H            1 FAD600   0.0000
    70 H7M3       114.3780    89.7914    27.9230 H            1 FAD600   0.0000
    71 H8M1       113.3657    85.6969    25.6159 H            1 FAD600   0.0000
    72 H8M2       113.7101    87.1760    25.0156 H            1 FAD600   0.0000
    73 H8M3       114.5731    86.5820    26.2682 H            1 FAD600   0.0000
    74 H21        111.5261    85.5540    26.7859 H            1 FAD600   0.0000
    75 H22        107.7659    87.2322    28.3420 H            1 FAD600   0.0000
    76 H1'1       109.2015    84.7186    27.0294 H            1 FAD600   0.0000
    77 H1'2       108.2760    84.5938    28.3690 H            1 FAD600   0.0000
    78 H2'        110.9105    83.5184    27.9660 H            1 FAD600   0.0000
    79 H26        110.3711    85.1809    30.0144 H            1 FAD600   0.0000
    80 H3'        108.8909    82.7078    29.9311 H            1 FAD600   0.0000
    81 H28        108.6350    81.2062    27.7997 H            1 FAD600   0.0000
    82 H4'        110.7569    81.0378    28.4425 H            1 FAD600   0.0000
    83 H30        111.9881    81.0236    30.2252 H            1 FAD600   0.0000
    84 H5'1       109.0158    79.7180    28.8546 H            1 FAD600   0.0000
    85 H5'2       108.6228    80.5246    30.2190 H            1 FAD600   0.0000
    86 H33        104.9289    85.9461    31.4207 H            1 FAD600   0.0000
@<TRIPOS>BOND
     1    1    2      ar
     2    1    3      ar
     3    1    4       1
     4    1   53       1
     5    4    5       1
     6    5    6       1
     7    6    7       1
     8    6    8       1
     9    7   12       1
    10    8    9       1
    11    8   10       1
    12   10   11       1
    13   10   12       1
    14   12   13       1
    15   13   14       1
    16   13   22       1
    17   14   15       2
    18   15   16       1
    19   16   17      ar
    20   16   22      ar
    21   17   18       1
    22   17   19      ar
    23   19   20      ar
    24   20   21      ar
    25   21   22      ar
    26   23   24       2
    27   23   40       1
    28   24   25       1
    29   24   26       1
    30   26   27      am
    31   27   28       2
    32   27   29       1
    33   29   30       2
    34   29   40       1
    35   30   31       1
    36   31   32      ar
    37   31   38      ar
    38   32   33      ar
    39   33   34       1
    40   33   35      ar
    41   35   36       1
    42   35   37      ar
    43   37   38      ar
    44   38   39       1
    45   39   40       1
    46   39   41       1
    47   41   42       1
    48   42   43       1
    49   42   44       1
    50   44   45       1
    51   44   46       1
    52   46   47       1
    53   46   48       1
    54   48   49       1
    55   49   50       1
    56   50   51      ar
    57   50   52      ar
    58   50   53       1
    59   48   85       1
    60    5   54       1
    61    5   55       1
    62    6   56       1
    63    8   57       1
    64    9   58       1
    65   10   59       1
    66   11   60       1
    67   12   61       1
    68   14   62       1
    69   18   63       1
    70   18   64       1
    71   20   65       1
    72   48   84       1
    73   26   66       1
    74   32   67       1
    75   34   68       1
    76   34   69       1
    77   34   70       1
    78   36   71       1
    79   36   72       1
    80   36   73       1
    81   37   74       1
    82   40   75       1
    83   41   76       1
    84   41   77       1
    85   42   78       1
    86   43   79       1
    87   44   80       1
    88   45   81       1
    89   46   82       1
    90   47   83       1
    91   25   86       1
@<TRIPOS>SUBSTRUCTURE
     1 FAD600      1 GROUP             4 A     FAD     0 **** FAD A 600
