@<TRIPOS>MOLECULE
2yy5_WSA_2_ligand
   62    66     1     0     0
SMALL
NO_CHARGES


@<TRIPOS>ATOM
     1 CD2         55.0190     5.6400   106.3060 C.ar         1 WSA1351   0.0000
     2 CE3         54.7290     5.7850   107.6580 C.ar         1 WSA1351   0.0000
     3 CZ3         55.0610     4.7670   108.5430 C.ar         1 WSA1351   0.0000
     4 CH2         55.6790     3.6100   108.0750 C.ar         1 WSA1351   0.0000
     5 CZ2         55.9660     3.4680   106.7230 C.ar         1 WSA1351   0.0000
     6 CE2         55.6340     4.4870   105.8380 C.ar         1 WSA1351   0.0000
     7 N11         55.8050     4.6310   104.5260 N.pl3        1 WSA1351   0.0000
     8 CD1         55.3330     5.8140   104.1450 C.2          1 WSA1351   0.0000
     9 CG          54.8450     6.4640   105.2000 C.2          1 WSA1351   0.0000
    10 CB          54.2280     7.8610   105.1890 C.3          1 WSA1351   0.0000
    11 CA          52.7620     7.8320   105.6280 C.3          1 WSA1351   0.0000
    12 NH3         51.9810     6.9440   104.7570 N.4          1 WSA1351   1.0000
    13 C           52.1970     9.2530   105.5530 C.2          1 WSA1351   0.0000
    14 O           51.8850     9.7370   104.4700 O.2          1 WSA1351   0.0000
    15 NS          52.0710     9.9170   106.6970 N.am         1 WSA1351   0.0000
    16 S           51.9900    11.5210   106.4130 S.o2         1 WSA1351   0.0000
    17 O1S         53.2380    11.9850   105.7220 O.2          1 WSA1351   0.0000
    18 O2S         50.8150    11.8310   105.5330 O.2          1 WSA1351   0.0000
    19 O5'         51.8570    12.1450   107.6950 O.3          1 WSA1351   0.0000
    20 C5'         52.8170    11.8280   108.7090 C.3          1 WSA1351   0.0000
    21 C4'         52.2140    11.2490   109.9930 C.3          1 WSA1351   0.0000
    22 O4'         51.2380    12.1610   110.5270 O.3          1 WSA1351   0.0000
    23 C3'         51.4990     9.9100   109.7950 C.3          1 WSA1351   0.0000
    24 O3'         51.7520     9.0590   110.9170 O.3          1 WSA1351   0.0000
    25 C2'         50.0320    10.3360   109.7910 C.3          1 WSA1351   0.0000
    26 O2'         49.2120     9.2430   110.2160 O.3          1 WSA1351   0.0000
    27 C1'         50.0920    11.3820   110.9020 C.3          1 WSA1351   0.0000
    28 N9          48.8780    12.2330   110.8660 N.pl3        1 WSA1351   0.0000
    29 C8          48.4280    12.8720   109.7890 C.2          1 WSA1351   0.0000
    30 N7          47.3560    13.5920   110.1100 N.2          1 WSA1351   0.0000
    31 C5          47.1210    13.4090   111.4080 C.ar         1 WSA1351   0.0000
    32 C4          48.0870    12.5340   111.8860 C.ar         1 WSA1351   0.0000
    33 N3          48.0660    12.1840   113.1830 N.ar         1 WSA1351   0.0000
    34 C2          47.1420    12.6660   113.9970 C.ar         1 WSA1351   0.0000
    35 N1          46.2120    13.5020   113.5720 N.ar         1 WSA1351   0.0000
    36 C6          46.1710    13.8950   112.2900 C.ar         1 WSA1351   0.0000
    37 N6          45.2410    14.7510   111.8680 N.pl3        1 WSA1351   0.0000
    38 HE3         54.2844     6.6165   107.9911 H            1 WSA1351   0.0000
    39 HZ3         54.8561     4.8650   109.5169 H            1 WSA1351   0.0000
    40 HH2         55.9170     2.8788   108.7143 H            1 WSA1351   0.0000
    41 HZ2         56.4094     2.6365   106.3882 H            1 WSA1351   0.0000
    42 H5          56.2237     3.9542   103.9205 H            1 WSA1351   0.0000
    43 HD1         55.3429     6.1630   103.2079 H            1 WSA1351   0.0000
    44 HB1         54.2821     8.2325   104.2621 H            1 WSA1351   0.0000
    45 HB2         54.7425     8.4481   105.8140 H            1 WSA1351   0.0000
    46 HA          52.7058     7.5033   106.5708 H            1 WSA1351   0.0000
    47 HH31        51.9896     6.0171   105.1322 H            1 WSA1351   0.0000
    48 HH32        51.0383     7.2735   104.7043 H            1 WSA1351   0.0000
    49 HS          52.0315     9.4939   107.6022 H            1 WSA1351   0.0000
    50 H5'1        53.3105    12.6651   108.9451 H            1 WSA1351   0.0000
    51 H5'2        53.4577    11.1577   108.3345 H            1 WSA1351   0.0000
    52 H4'         52.9439    11.1281   110.6657 H            1 WSA1351   0.0000
    53 H3'         51.7604     9.4745   108.9336 H            1 WSA1351   0.0000
    54 H17         52.5747     8.5170   110.7454 H            1 WSA1351   0.0000
    55 H2'         49.7425    10.7190   108.9138 H            1 WSA1351   0.0000
    56 H19         48.2526     9.5249   110.2123 H            1 WSA1351   0.0000
    57 H1'         50.2152    10.9572   111.7989 H            1 WSA1351   0.0000
    58 H21         48.8340    12.8191   108.8766 H            1 WSA1351   0.0000
    59 H22         47.1475    12.3907   114.9583 H            1 WSA1351   0.0000
    60 H23         44.5560    15.1004   112.5073 H            1 WSA1351   0.0000
    61 H24         45.2280    15.0440   110.9120 H            1 WSA1351   0.0000
    62 HH33        52.3833     6.9368   103.8415 H            1 WSA1351   0.0000
@<TRIPOS>BOND
     1    1    2      ar
     2    1    6      ar
     3    1    9       1
     4    2    3      ar
     5    3    4      ar
     6    4    5      ar
     7    5    6      ar
     8    6    7       1
     9    7    8       1
    10    8    9       2
    11    9   10       1
    12   10   11       1
    13   11   12       1
    14   11   13       1
    15   13   14       2
    16   13   15      am
    17   15   16       1
    18   16   17       2
    19   16   18       2
    20   16   19       1
    21   19   20       1
    22   20   21       1
    23   21   22       1
    24   21   23       1
    25   22   27       1
    26   23   24       1
    27   23   25       1
    28   25   26       1
    29   25   27       1
    30   27   28       1
    31   28   29       1
    32   28   32       1
    33   29   30       2
    34   30   31       1
    35   31   32      ar
    36   31   36      ar
    37   32   33      ar
    38   33   34      ar
    39   34   35      ar
    40   35   36      ar
    41   36   37       1
    42    2   38       1
    43    3   39       1
    44    4   40       1
    45    5   41       1
    46    7   42       1
    47    8   43       1
    48   10   44       1
    49   10   45       1
    50   11   46       1
    51   12   47       1
    52   12   48       1
    53   15   49       1
    54   20   50       1
    55   20   51       1
    56   21   52       1
    57   23   53       1
    58   24   54       1
    59   25   55       1
    60   26   56       1
    61   27   57       1
    62   29   58       1
    63   34   59       1
    64   37   60       1
    65   37   61       1
    66   12   62       1
@<TRIPOS>SUBSTRUCTURE
     1 WSA1351     1 GROUP             4 B     WSA     0 **** WSA B1351
