@<TRIPOS>MOLECULE
1kvk_ATP_1_ligand
   43    45     1     0     0
SMALL
NO_CHARGES


@<TRIPOS>ATOM
     1 PG          42.2130    34.0920    11.8750 P.3          1 ATP535   0.0000
     2 O1G         40.7600    33.7140    11.7850 O.co2        1 ATP535   0.0000
     3 O2G         42.6740    35.6330    11.5770 O.co2        1 ATP535  -1.0000
     4 O3G         42.9520    33.3080    10.8920 O.co2        1 ATP535  -1.0000
     5 PB          42.4320    31.9870    13.6640 P.3          1 ATP535   0.0000
     6 O1B         43.4540    31.0420    12.9480 O.co2        1 ATP535   0.0000
     7 O2B         42.3160    32.0080    15.1440 O.co2        1 ATP535  -1.0000
     8 O3B         42.8060    33.3210    13.1430 O.3          1 ATP535   0.0000
     9 PA          39.8610    31.0100    13.6740 P.3          1 ATP535   0.0000
    10 O1A         39.7260    31.7810    15.0710 O.co2        1 ATP535   0.0000
    11 O2A         38.5850    31.3360    12.6900 O.co2        1 ATP535  -1.0000
    12 O3A         41.1500    31.4380    12.9130 O.3          1 ATP535   0.0000
    13 O5'         40.0010    29.4680    13.8780 O.3          1 ATP535   0.0000
    14 C5'         41.0600    29.0760    14.8000 C.3          1 ATP535   0.0000
    15 C4'         41.0370    27.6250    14.7830 C.3          1 ATP535   0.0000
    16 O4'         42.4250    27.0870    14.7460 O.3          1 ATP535   0.0000
    17 C3'         40.2790    27.0230    15.9840 C.3          1 ATP535   0.0000
    18 O3'         38.9830    26.3250    15.4080 O.3          1 ATP535   0.0000
    19 C2'         41.3630    26.0820    16.6460 C.3          1 ATP535   0.0000
    20 O2'         40.9060    24.6920    16.6250 O.3          1 ATP535   0.0000
    21 C1'         42.7120    26.1800    15.7850 C.3          1 ATP535   0.0000
    22 N9          43.8860    26.6030    16.6570 N.pl3        1 ATP535   0.0000
    23 C8          44.5140    27.9580    16.9430 C.2          1 ATP535   0.0000
    24 N7          45.5970    27.8830    17.8240 N.2          1 ATP535   0.0000
    25 C5          45.6890    26.5280    18.1160 C.ar         1 ATP535   0.0000
    26 C6          46.6010    25.6930    18.9910 C.ar         1 ATP535   0.0000
    27 N6          47.6400    26.2140    19.7450 N.pl3        1 ATP535   0.0000
    28 N1          46.3750    24.2450    19.0450 N.ar         1 ATP535   0.0000
    29 C2          45.2780    23.5630    18.2770 C.ar         1 ATP535   0.0000
    30 N3          44.4160    24.2460    17.4720 N.ar         1 ATP535   0.0000
    31 C4          44.6360    25.7160    17.4050 C.ar         1 ATP535   0.0000
    32 H5'1        40.8740    29.4218    15.7197 H            1 ATP535   0.0000
    33 H5'2        41.9458    29.4193    14.4876 H            1 ATP535   0.0000
    34 H4'         40.5713    27.3339    13.9473 H            1 ATP535   0.0000
    35 H3'         40.0208    27.7479    16.6226 H            1 ATP535   0.0000
    36 H5          38.4609    25.9200    16.1586 H            1 ATP535   0.0000
    37 H2'         41.5368    26.3705    17.5876 H            1 ATP535   0.0000
    38 H7          41.5540    24.1359    16.1046 H            1 ATP535   0.0000
    39 H1'         42.9092    25.2837    15.3879 H            1 ATP535   0.0000
    40 H9          44.1864    28.8138    16.5426 H            1 ATP535   0.0000
    41 H10         48.2062    25.6072    20.3028 H            1 ATP535   0.0000
    42 H11         47.8237    27.1969    19.7314 H            1 ATP535   0.0000
    43 H12         45.1768    22.5716    18.3596 H            1 ATP535   0.0000
@<TRIPOS>BOND
     1    1    2      ar
     2    1    3      ar
     3    1    4      ar
     4    1    8       1
     5    5    6      ar
     6    5    7      ar
     7    5    8       1
     8    5   12       1
     9    9   10      ar
    10    9   11      ar
    11    9   12       1
    12    9   13       1
    13   13   14       1
    14   14   15       1
    15   15   16       1
    16   15   17       1
    17   16   21       1
    18   17   18       1
    19   17   19       1
    20   19   20       1
    21   19   21       1
    22   21   22       1
    23   22   23       1
    24   22   31       1
    25   23   24       2
    26   24   25       1
    27   25   26      ar
    28   25   31      ar
    29   26   27       1
    30   26   28      ar
    31   28   29      ar
    32   29   30      ar
    33   30   31      ar
    34   29   43       1
    35   27   42       1
    36   27   41       1
    37   23   40       1
    38   14   32       1
    39   14   33       1
    40   15   34       1
    41   17   35       1
    42   18   36       1
    43   19   37       1
    44   20   38       1
    45   21   39       1
@<TRIPOS>SUBSTRUCTURE
     1 ATP535      1 GROUP             4 A     ATP     0 **** ATP A 535
