@<TRIPOS>MOLECULE
3fd6_ADP_1_ligand
   39    41     1     0     0
SMALL
NO_CHARGES


@<TRIPOS>ATOM
     1 PB          62.0430    35.9540    83.1970 P.3          1 ADP393   0.0000
     2 O1B         62.5930    35.9570    81.8080 O.co2        1 ADP393   0.0000
     3 O2B         60.5540    35.6860    83.2350 O.co2        1 ADP393  -1.0000
     4 O3B         62.4600    37.1160    84.0590 O.co2        1 ADP393  -1.0000
     5 PA          61.9460    33.1970    83.9990 P.3          1 ADP393   0.0000
     6 O1A         61.4630    32.6520    82.6830 O.co2        1 ADP393   0.0000
     7 O2A         60.9500    33.2710    85.1290 O.co2        1 ADP393  -1.0000
     8 O3A         62.6840    34.6370    83.8830 O.3          1 ADP393   0.0000
     9 O5'         63.2160    32.2890    84.4090 O.3          1 ADP393   0.0000
    10 C5'         63.8700    32.5280    85.6680 C.3          1 ADP393   0.0000
    11 C4'         65.3640    32.7810    85.4760 C.3          1 ADP393   0.0000
    12 O4'         66.0160    31.5610    85.1070 O.3          1 ADP393   0.0000
    13 C3'         65.6380    33.7650    84.3580 C.3          1 ADP393   0.0000
    14 O3'         66.7450    34.5370    84.7730 O.3          1 ADP393   0.0000
    15 C2'         66.0950    32.9480    83.1700 C.3          1 ADP393   0.0000
    16 O2'         67.0950    33.6590    82.4100 O.3          1 ADP393   0.0000
    17 C1'         66.6590    31.7060    83.8370 C.3          1 ADP393   0.0000
    18 N9          66.4150    30.4480    83.0970 N.pl3        1 ADP393   0.0000
    19 C8          65.2290    29.8240    82.9400 C.2          1 ADP393   0.0000
    20 N7          65.3840    28.6710    82.2320 N.2          1 ADP393   0.0000
    21 C5          66.6980    28.5520    81.9470 C.ar         1 ADP393   0.0000
    22 C6          67.5460    27.5890    81.2300 C.ar         1 ADP393   0.0000
    23 N6          67.0110    26.4770    80.6610 N.pl3        1 ADP393   0.0000
    24 N1          68.8670    27.8710    81.1590 N.ar         1 ADP393   0.0000
    25 C2          69.4200    28.9540    81.7130 C.ar         1 ADP393   0.0000
    26 N3          68.7100    29.8730    82.3790 N.ar         1 ADP393   0.0000
    27 C4          67.3690    29.7250    82.5220 C.ar         1 ADP393   0.0000
    28 H5'1        63.7476    31.7284    86.2559 H            1 ADP393   0.0000
    29 H5'2        63.4571    33.3281    86.1032 H            1 ADP393   0.0000
    30 H4'         65.7570    33.1256    86.3285 H            1 ADP393   0.0000
    31 H3'         64.8403    34.3295    84.1457 H            1 ADP393   0.0000
    32 H5          66.4816    35.5007    84.8172 H            1 ADP393   0.0000
    33 H2'         65.3169    32.7103    82.5885 H            1 ADP393   0.0000
    34 H7          66.6484    34.2119    81.7065 H            1 ADP393   0.0000
    35 H1'         67.6424    31.8227    83.9756 H            1 ADP393   0.0000
    36 H9          64.3569    30.1615    83.2944 H            1 ADP393   0.0000
    37 H10         67.6002    25.8306    80.1763 H            1 ADP393   0.0000
    38 H11         66.0281    26.3051    80.7270 H            1 ADP393   0.0000
    39 H12         70.4078    29.0837    81.6263 H            1 ADP393   0.0000
@<TRIPOS>BOND
     1    1    2      ar
     2    1    3      ar
     3    1    4      ar
     4    1    8       1
     5    5    6      ar
     6    5    7      ar
     7    5    8       1
     8    5    9       1
     9    9   10       1
    10   10   11       1
    11   11   12       1
    12   11   13       1
    13   12   17       1
    14   13   14       1
    15   13   15       1
    16   15   16       1
    17   15   17       1
    18   17   18       1
    19   18   19       1
    20   18   27       1
    21   19   20       2
    22   20   21       1
    23   21   22      ar
    24   21   27      ar
    25   22   23       1
    26   22   24      ar
    27   24   25      ar
    28   25   26      ar
    29   26   27      ar
    30   25   39       1
    31   23   38       1
    32   23   37       1
    33   10   28       1
    34   10   29       1
    35   11   30       1
    36   13   31       1
    37   14   32       1
    38   15   33       1
    39   16   34       1
    40   17   35       1
    41   19   36       1
@<TRIPOS>SUBSTRUCTURE
     1 ADP393      1 GROUP             4 A     ADP     0 **** ADP A 393
