@<TRIPOS>MOLECULE
4kzi_ZJ0_1_ligand
   49    49     1     0     0
SMALL
NO_CHARGES


@<TRIPOS>ATOM
     1 O8          14.6470   -16.4230     1.5870 O.2          1 ZJ0703   0.0000
     2 C1          14.7380   -16.8000     0.3880 C.2          1 ZJ0703   0.0000
     3 C2          16.0030   -17.2010    -0.4170 C.ar         1 ZJ0703   0.0000
     4 C7          17.2460   -17.2680     0.2190 C.ar         1 ZJ0703   0.0000
     5 C6          18.4010   -17.6060    -0.5050 C.ar         1 ZJ0703   0.0000
     6 O19         19.6460   -17.7160     0.0580 O.3          1 ZJ0703   0.0000
     7 C21         20.1490   -16.8410     1.0410 C.3          1 ZJ0703   0.0000
     8 C5          18.3530   -17.9130    -1.8500 C.ar         1 ZJ0703   0.0000
     9 C4          17.1550   -17.8600    -2.5320 C.ar         1 ZJ0703   0.0000
    10 O18         17.1870   -18.1680    -3.8880 O.3          1 ZJ0703   0.0000
    11 C20         17.9100   -17.3940    -4.8650 C.3          1 ZJ0703   0.0000
    12 C3          15.9810   -17.5080    -1.8120 C.ar         1 ZJ0703   0.0000
    13 C9          13.4050   -16.8340    -0.2970 C.3          1 ZJ0703   0.0000
    14 C10         13.3180   -15.8350    -1.4530 C.3          1 ZJ0703   0.0000
    15 C11         12.4010   -14.6230    -1.2650 C.3          1 ZJ0703   0.0000
    16 C12         12.1660   -14.1390    -2.6910 C.3          1 ZJ0703   0.0000
    17 C13         11.0530   -13.0810    -3.0490 C.3          1 ZJ0703   0.0000
    18 C14         10.6100   -13.2460    -4.4890 C.3          1 ZJ0703   0.0000
    19 C15         11.7090   -13.4590    -5.5670 C.3          1 ZJ0703   0.0000
    20 C16         11.3560   -14.4610    -6.6680 C.3          1 ZJ0703   0.0000
    21 C17         11.9640   -15.8380    -6.3630 C.3          1 ZJ0703   0.0000
    22 H1          17.3134   -17.0737     1.1976 H            1 ZJ0703   0.0000
    23 H2          21.0743   -17.1222     1.2956 H            1 ZJ0703   0.0000
    24 H3          20.1717   -15.9095     0.6780 H            1 ZJ0703   0.0000
    25 H4          19.5581   -16.8703     1.8472 H            1 ZJ0703   0.0000
    26 H5          19.1894   -18.1747    -2.3316 H            1 ZJ0703   0.0000
    27 H6          17.7888   -17.8023    -5.7698 H            1 ZJ0703   0.0000
    28 H7          17.5608   -16.4570    -4.8727 H            1 ZJ0703   0.0000
    29 H8          18.8821   -17.3856    -4.6306 H            1 ZJ0703   0.0000
    30 H9          15.1085   -17.4741    -2.2994 H            1 ZJ0703   0.0000
    31 H10         12.6946   -16.6143     0.3716 H            1 ZJ0703   0.0000
    32 H11         13.2517   -17.7547    -0.6559 H            1 ZJ0703   0.0000
    33 H12         12.9958   -16.3337    -2.2576 H            1 ZJ0703   0.0000
    34 H13         14.2412   -15.4900    -1.6222 H            1 ZJ0703   0.0000
    35 H14         12.8481   -13.9169    -0.7158 H            1 ZJ0703   0.0000
    36 H15         11.5405   -14.8885    -0.8301 H            1 ZJ0703   0.0000
    37 H16         11.9593   -14.9546    -3.2315 H            1 ZJ0703   0.0000
    38 H17         13.0328   -13.7463    -2.9983 H            1 ZJ0703   0.0000
    39 H18         11.4207   -12.1599    -2.9210 H            1 ZJ0703   0.0000
    40 H19         10.2668   -13.2129    -2.4453 H            1 ZJ0703   0.0000
    41 H20         10.1015   -12.4225    -4.7405 H            1 ZJ0703   0.0000
    42 H21         10.0005   -14.0380    -4.5244 H            1 ZJ0703   0.0000
    43 H22         12.5352   -13.7836    -5.1066 H            1 ZJ0703   0.0000
    44 H23         11.8933   -12.5764    -5.9995 H            1 ZJ0703   0.0000
    45 H24         11.7145   -14.1297    -7.5408 H            1 ZJ0703   0.0000
    46 H25         10.3615   -14.5470    -6.7272 H            1 ZJ0703   0.0000
    47 H26         11.7227   -16.4779    -7.0926 H            1 ZJ0703   0.0000
    48 H27         12.9591   -15.7577    -6.3057 H            1 ZJ0703   0.0000
    49 H28         11.6061   -16.1749    -5.4922 H            1 ZJ0703   0.0000
@<TRIPOS>BOND
     1    1    2       2
     2    2    3       1
     3    2   13       1
     4    3    4      ar
     5    3   12      ar
     6    4    5      ar
     7    5    6       1
     8    5    8      ar
     9    6    7       1
    10    8    9      ar
    11    9   10       1
    12    9   12      ar
    13   10   11       1
    14   13   14       1
    15   14   15       1
    16   15   16       1
    17   16   17       1
    18   17   18       1
    19   18   19       1
    20   19   20       1
    21   20   21       1
    22    4   22       1
    23    7   23       1
    24    7   24       1
    25    7   25       1
    26    8   26       1
    27   11   27       1
    28   11   28       1
    29   11   29       1
    30   12   30       1
    31   13   31       1
    32   13   32       1
    33   14   33       1
    34   14   34       1
    35   15   35       1
    36   15   36       1
    37   16   37       1
    38   16   38       1
    39   17   39       1
    40   17   40       1
    41   18   41       1
    42   18   42       1
    43   19   43       1
    44   19   44       1
    45   20   45       1
    46   20   46       1
    47   21   47       1
    48   21   48       1
    49   21   49       1
@<TRIPOS>SUBSTRUCTURE
     1 ZJ0703      1 GROUP             4 A     ZJ0     0 **** ZJ0 A 703
