@<TRIPOS>MOLECULE
2cfc_KPC_2_ligand
   20    19     1     0     0
SMALL
NO_CHARGES


@<TRIPOS>ATOM
     1 CAK         11.2390  -110.4700   105.0170 C.3          1 KPC1252   0.0000
     2 CAJ         10.4990  -111.4420   105.9380 C.2          1 KPC1252   0.0000
     3 OAC          9.3790  -111.8470   105.6320 O.2          1 KPC1252   0.0000
     4 CAI         11.1440  -111.9020   107.2480 C.3          1 KPC1252   0.0000
     5 SAH         12.9360  -112.2330   107.0700 S.3          1 KPC1252   0.0000
     6 CAG         13.5930  -110.5340   107.2350 C.3          1 KPC1252   0.0000
     7 CAF         13.2920  -109.9190   108.6030 C.3          1 KPC1252   0.0000
     8 SAE         13.7980  -108.1640   108.7080 S.o2         1 KPC1252   0.0000
     9 OAD         13.2710  -107.4360   107.5060 O.co2        1 KPC1252   0.0000
    10 OAL         13.2320  -107.5550   109.9570 O.co2        1 KPC1252   0.0000
    11 OAB         15.2950  -108.0770   108.7330 O.co2        1 KPC1252  -1.0000
    12 HAK1        12.1285  -110.2455   105.4149 H            1 KPC1252   0.0000
    13 HAK2        11.3721  -110.8950   104.1217 H            1 KPC1252   0.0000
    14 HAK3        10.7001  -109.6342   104.9124 H            1 KPC1252   0.0000
    15 HAI1        10.6916  -112.7408   107.5508 H            1 KPC1252   0.0000
    16 HAI2        11.0168  -111.1876   107.9361 H            1 KPC1252   0.0000
    17 HAG1        13.1798  -109.9604   106.5277 H            1 KPC1252   0.0000
    18 HAG2        14.5843  -110.5597   107.1062 H            1 KPC1252   0.0000
    19 HAF1        13.7838  -110.4371   109.3028 H            1 KPC1252   0.0000
    20 HAF2        12.3084  -109.9800   108.7727 H            1 KPC1252   0.0000
@<TRIPOS>BOND
     1    1    2       1
     2    2    3       2
     3    2    4       1
     4    4    5       1
     5    5    6       1
     6    6    7       1
     7    7    8       1
     8    8    9      ar
     9    8   10      ar
    10    8   11      ar
    11    1   12       1
    12    1   13       1
    13    1   14       1
    14    4   15       1
    15    4   16       1
    16    6   17       1
    17    6   18       1
    18    7   19       1
    19    7   20       1
@<TRIPOS>SUBSTRUCTURE
     1 KPC1252     1 GROUP             4 B     KPC     0 **** KPC B1252
