@<TRIPOS>MOLECULE
1xva_SAM_1_ligand
   50    52     1     0     0
SMALL
NO_CHARGES


@<TRIPOS>ATOM
     1 N           61.5280    67.4880     7.5600 N.4          1 SAM293   1.0000
     2 CA          61.3530    68.9000     7.2400 C.3          1 SAM293   0.0000
     3 C           61.4990    69.0370     5.7160 C.2          1 SAM293   0.0000
     4 O           60.5610    68.6930     4.9770 O.co2        1 SAM293   0.0000
     5 OXT         62.4300    69.6590     5.2120 O.co2        1 SAM293  -1.0000
     6 CB          62.4090    69.7100     8.0120 C.3          1 SAM293   0.0000
     7 CG          61.9270    70.8080     8.9740 C.3          1 SAM293   0.0000
     8 SD          63.2730    71.7310     9.7930 S.3          1 SAM293   1.0000
     9 CE          63.8780    70.6570    11.0850 C.3          1 SAM293   0.0000
    10 C5'         62.4630    73.0350    10.7870 C.3          1 SAM293   0.0000
    11 C4'         61.8300    73.9450     9.8720 C.3          1 SAM293   0.0000
    12 O4'         60.8400    74.7810    10.5920 O.3          1 SAM293   0.0000
    13 C3'         62.9510    74.9180     9.2950 C.3          1 SAM293   0.0000
    14 O3'         62.9610    74.9370     7.8290 O.3          1 SAM293   0.0000
    15 C2'         62.5500    76.2880     9.8220 C.3          1 SAM293   0.0000
    16 O2'         62.7830    77.2710     8.8360 O.3          1 SAM293   0.0000
    17 C1'         61.0480    76.1390    10.1020 C.3          1 SAM293   0.0000
    18 N9          60.4080    77.3090    10.8400 N.pl3        1 SAM293   0.0000
    19 C8          59.9200    78.4400    10.1890 C.2          1 SAM293   0.0000
    20 N7          59.5020    79.3780    10.9880 N.2          1 SAM293   0.0000
    21 C5          59.7120    78.8570    12.2770 C.ar         1 SAM293   0.0000
    22 C6          59.3920    79.3550    13.5640 C.ar         1 SAM293   0.0000
    23 N6          58.8650    80.5710    13.7450 N.pl3        1 SAM293   0.0000
    24 N1          59.6380    78.5660    14.6330 N.ar         1 SAM293   0.0000
    25 C2          60.1880    77.3690    14.4330 C.ar         1 SAM293   0.0000
    26 N3          60.5470    76.7880    13.2930 N.ar         1 SAM293   0.0000
    27 C4          60.2790    77.5960    12.2180 C.ar         1 SAM293   0.0000
    28 H1          62.3068    67.3803     8.1779 H            1 SAM293   0.0000
    29 H2          60.7009    67.1415     8.0026 H            1 SAM293   0.0000
    30 HA          60.4381    69.1945     7.5161 H            1 SAM293   0.0000
    31 HB1         62.9991    70.1486     7.3342 H            1 SAM293   0.0000
    32 HB2         62.9454    69.0598     8.5501 H            1 SAM293   0.0000
    33 HG1         61.3647    70.3801     9.6816 H            1 SAM293   0.0000
    34 HG2         61.3719    71.4580     8.4549 H            1 SAM293   0.0000
    35 HE1         64.6231    71.1107    11.5739 H            1 SAM293   0.0000
    36 HE2         63.1359    70.4529    11.7235 H            1 SAM293   0.0000
    37 HE3         64.2138    69.8060    10.6811 H            1 SAM293   0.0000
    38 H5'1        63.1449    73.5203    11.3343 H            1 SAM293   0.0000
    39 H5'2        61.7786    72.6277    11.3918 H            1 SAM293   0.0000
    40 H4'         61.3880    73.4422     9.1292 H            1 SAM293   0.0000
    41 H3'         63.8509    74.6595     9.6461 H            1 SAM293   0.0000
    42 H15         62.0373    74.7641     7.4871 H            1 SAM293   0.0000
    43 H2'         63.0474    76.5040    10.6622 H            1 SAM293   0.0000
    44 H17         63.1589    76.8385     8.0165 H            1 SAM293   0.0000
    45 H1'         60.6213    76.1483     9.1976 H            1 SAM293   0.0000
    46 H19         59.8933    78.5237     9.1929 H            1 SAM293   0.0000
    47 H20         58.6512    80.8909    14.6680 H            1 SAM293   0.0000
    48 H21         58.6848    81.1602    12.9573 H            1 SAM293   0.0000
    49 H22         60.3545    76.8307    15.2591 H            1 SAM293   0.0000
    50 H23         61.6962    66.9740     6.7189 H            1 SAM293   0.0000
@<TRIPOS>BOND
     1    1    2       1
     2    2    3       1
     3    2    6       1
     4    3    4      ar
     5    3    5      ar
     6    6    7       1
     7    7    8       1
     8    8    9       1
     9    8   10       1
    10   10   11       1
    11   11   12       1
    12   11   13       1
    13   12   17       1
    14   13   14       1
    15   13   15       1
    16   15   16       1
    17   15   17       1
    18   17   18       1
    19   18   19       1
    20   18   27       1
    21   19   20       2
    22   20   21       1
    23   21   22      ar
    24   21   27      ar
    25   22   23       1
    26   22   24      ar
    27   24   25      ar
    28   25   26      ar
    29   26   27      ar
    30    1   28       1
    31    1   29       1
    32    2   30       1
    33    1   50       1
    34    6   31       1
    35    6   32       1
    36    7   33       1
    37    7   34       1
    38    9   35       1
    39    9   36       1
    40    9   37       1
    41   10   38       1
    42   10   39       1
    43   11   40       1
    44   13   41       1
    45   14   42       1
    46   15   43       1
    47   16   44       1
    48   17   45       1
    49   19   46       1
    50   23   47       1
    51   23   48       1
    52   25   49       1
@<TRIPOS>SUBSTRUCTURE
     1 SAM293      1 GROUP             4 A     SAM     0 **** SAM A 293
