@<TRIPOS>MOLECULE
3r6p_A8S_1_ligand
   40    40     1     0     0
SMALL
NO_CHARGES


@<TRIPOS>ATOM
     1 C1         -22.3690    25.6640   -11.4950 C.2          1 A8S192   0.0000
     2 C2         -22.9780    26.2300   -12.7790 C.3          1 A8S192   0.0000
     3 C3         -22.7930    27.7360   -12.9730 C.2          1 A8S192   0.0000
     4 C4         -22.0440    28.5570   -11.9220 C.3          1 A8S192   0.0000
     5 C5         -21.9260    30.0510   -12.2310 C.3          1 A8S192   0.0000
     6 C6         -23.3580    28.4220   -14.2190 C.2          1 A8S192   0.0000
     7 C7         -21.2450    30.7970   -11.2760 C.3          1 A8S192   0.0000
     8 O7         -20.8730    29.9500   -10.1860 O.3          1 A8S192   0.0000
     9 C8         -20.1030    31.3480   -11.8460 C.2          1 A8S192   0.0000
    10 C9         -20.1490    32.6050   -12.4390 C.2          1 A8S192   0.0000
    11 C10        -21.3270    33.3440   -12.4810 C.2          1 A8S192   0.0000
    12 O10        -21.3250    34.4520   -13.0150 O.2          1 A8S192   0.0000
    13 C11        -22.4930    32.8310   -11.9240 C.3          1 A8S192   0.0000
    14 O11        -22.4650    24.4430   -11.2420 O.co2        1 A8S192   0.0000
    15 C12        -22.1430    31.9100   -10.7700 C.3          1 A8S192   0.0000
    16 O12        -21.7740    26.4220   -10.6980 O.co2        1 A8S192  -1.0000
    17 C13        -18.9080    30.6380   -11.8220 C.3          1 A8S192   0.0000
    18 C14        -21.4120    32.7030    -9.6850 C.3          1 A8S192   0.0000
    19 C15        -23.4240    31.3080   -10.1880 C.3          1 A8S192   0.0000
    20 H1         -23.9591    26.0368   -12.7684 H            1 A8S192   0.0000
    21 H2         -22.5546    25.7629   -13.5553 H            1 A8S192   0.0000
    22 H3         -21.1201    28.1839   -11.8377 H            1 A8S192   0.0000
    23 H4         -22.5245    28.4576   -11.0506 H            1 A8S192   0.0000
    24 H5         -22.8499    30.4242   -12.3151 H            1 A8S192   0.0000
    25 H6         -21.4458    30.1504   -13.1025 H            1 A8S192   0.0000
    26 H7         -23.2371    29.4065   -14.3459 H            1 A8S192   0.0000
    27 H8         -23.8480    27.8857   -14.9062 H            1 A8S192   0.0000
    28 H9         -20.2810    29.2168   -10.5206 H            1 A8S192   0.0000
    29 H10        -19.3177    32.9858   -12.8438 H            1 A8S192   0.0000
    30 H11        -22.9960    32.3173   -12.6191 H            1 A8S192   0.0000
    31 H12        -23.0609    33.5830   -11.5893 H            1 A8S192   0.0000
    32 H13        -18.1929    31.1738   -12.2709 H            1 A8S192   0.0000
    33 H14        -18.6452    30.4596   -10.8738 H            1 A8S192   0.0000
    34 H15        -19.0263    29.7699   -12.3040 H            1 A8S192   0.0000
    35 H16        -22.0045    33.4365    -9.3519 H            1 A8S192   0.0000
    36 H17        -21.1778    32.0937    -8.9274 H            1 A8S192   0.0000
    37 H18        -20.5759    33.0972   -10.0664 H            1 A8S192   0.0000
    38 H19        -24.0157    32.0420    -9.8546 H            1 A8S192   0.0000
    39 H20        -23.9020    30.7912   -10.8982 H            1 A8S192   0.0000
    40 H21        -23.1914    30.6975    -9.4309 H            1 A8S192   0.0000
@<TRIPOS>BOND
     1    1    2       1
     2    1   14      ar
     3    1   16      ar
     4    2    3       1
     5    3    4       1
     6    3    6       2
     7    4    5       1
     8    5    7       1
     9    7    8       1
    10    7    9       1
    11    7   15       1
    12    9   10       2
    13    9   17       1
    14   10   11       1
    15   11   12       2
    16   11   13       1
    17   13   15       1
    18   15   18       1
    19   15   19       1
    20    2   20       1
    21    2   21       1
    22    4   22       1
    23    4   23       1
    24    5   24       1
    25    5   25       1
    26    6   26       1
    27    6   27       1
    28    8   28       1
    29   10   29       1
    30   13   30       1
    31   13   31       1
    32   19   40       1
    33   17   32       1
    34   17   33       1
    35   17   34       1
    36   18   35       1
    37   18   36       1
    38   18   37       1
    39   19   38       1
    40   19   39       1
@<TRIPOS>SUBSTRUCTURE
     1 A8S192      1 GROUP             4 A     A8S     0 **** A8S A 192
