@<TRIPOS>MOLECULE
3axt_SAM_1_ligand
   50    52     1     0     0
SMALL
NO_CHARGES


@<TRIPOS>ATOM
     1 N           18.6520    13.9060    47.5810 N.4          1 SAM397   1.0000
     2 CA          18.9510    13.4490    48.9330 C.3          1 SAM397   0.0000
     3 C           18.0880    14.1480    49.9800 C.2          1 SAM397   0.0000
     4 O           18.2020    13.8770    51.1750 O.co2        1 SAM397   0.0000
     5 OXT         17.2580    14.9980    49.6580 O.co2        1 SAM397  -1.0000
     6 CB          20.4350    13.6130    49.2420 C.3          1 SAM397   0.0000
     7 CG          21.2340    14.3410    48.1690 C.3          1 SAM397   0.0000
     8 SD          22.9970    14.4590    48.5650 S.3          1 SAM397   1.0000
     9 CE          23.1530    16.2590    48.6210 C.3          1 SAM397   0.0000
    10 C5'         23.7780    14.1260    46.9650 C.3          1 SAM397   0.0000
    11 C4'         24.1710    12.6700    46.7350 C.3          1 SAM397   0.0000
    12 O4'         24.5010    12.4980    45.3720 O.3          1 SAM397   0.0000
    13 C3'         25.3850    12.2310    47.5430 C.3          1 SAM397   0.0000
    14 O3'         25.0130    11.2230    48.4530 O.3          1 SAM397   0.0000
    15 C2'         26.3710    11.6690    46.5380 C.3          1 SAM397   0.0000
    16 O2'         26.7580    10.3630    46.8930 O.3          1 SAM397   0.0000
    17 C1'         25.6150    11.6430    45.2220 C.3          1 SAM397   0.0000
    18 N9          26.4590    12.1450    44.1270 N.pl3        1 SAM397   0.0000
    19 C8          27.3870    13.1480    44.2130 C.2          1 SAM397   0.0000
    20 N7          27.9450    13.3140    42.9930 N.2          1 SAM397   0.0000
    21 C5          27.3830    12.4350    42.1340 C.ar         1 SAM397   0.0000
    22 C6          27.5850    12.1870    40.7840 C.ar         1 SAM397   0.0000
    23 N6          28.4830    12.8940    40.1040 N.pl3        1 SAM397   0.0000
    24 N1          26.8500    11.2040    40.1540 N.ar         1 SAM397   0.0000
    25 C2          25.9200    10.4750    40.8680 C.ar         1 SAM397   0.0000
    26 N3          25.7240    10.7270    42.2110 N.ar         1 SAM397   0.0000
    27 C4          26.4450    11.6910    42.8340 C.ar         1 SAM397   0.0000
    28 H1          19.2377    13.4243    46.9291 H            1 SAM397   0.0000
    29 H2          17.6929    13.7175    47.3699 H            1 SAM397   0.0000
    30 HA          18.7413    12.4721    48.9737 H            1 SAM397   0.0000
    31 HB1         20.8307    12.7023    49.3603 H            1 SAM397   0.0000
    32 HB2         20.5201    14.1269    50.0956 H            1 SAM397   0.0000
    33 HG1         20.8664    15.2656    48.0693 H            1 SAM397   0.0000
    34 HG2         21.1330    13.8472    47.3053 H            1 SAM397   0.0000
    35 HE1         24.0982    16.5052    48.8355 H            1 SAM397   0.0000
    36 HE2         22.9019    16.6431    47.7325 H            1 SAM397   0.0000
    37 HE3         22.5452    16.6245    49.3260 H            1 SAM397   0.0000
    38 H5'1        24.6045    14.6852    46.9000 H            1 SAM397   0.0000
    39 H5'2        23.1376    14.3927    46.2448 H            1 SAM397   0.0000
    40 H4'         23.3954    12.0810    46.9617 H            1 SAM397   0.0000
    41 H3'         25.7839    13.0099    48.0270 H            1 SAM397   0.0000
    42 H15         24.6487    10.4386    47.9510 H            1 SAM397   0.0000
    43 H2'         27.1726    12.2626    46.4674 H            1 SAM397   0.0000
    44 H17         26.1349     9.7044    46.4711 H            1 SAM397   0.0000
    45 H1'         25.3088    10.7126    45.0204 H            1 SAM397   0.0000
    46 H19         27.6131    13.6682    45.0366 H            1 SAM397   0.0000
    47 H20         28.6279    12.7146    39.1310 H            1 SAM397   0.0000
    48 H21         29.0133    13.6051    40.5657 H            1 SAM397   0.0000
    49 H22         25.3871     9.7627    40.4112 H            1 SAM397   0.0000
    50 H23         18.8204    14.8896    47.5167 H            1 SAM397   0.0000
@<TRIPOS>BOND
     1    1    2       1
     2    2    3       1
     3    2    6       1
     4    3    4      ar
     5    3    5      ar
     6    6    7       1
     7    7    8       1
     8    8    9       1
     9    8   10       1
    10   10   11       1
    11   11   12       1
    12   11   13       1
    13   12   17       1
    14   13   14       1
    15   13   15       1
    16   15   16       1
    17   15   17       1
    18   17   18       1
    19   18   19       1
    20   18   27       1
    21   19   20       2
    22   20   21       1
    23   21   22      ar
    24   21   27      ar
    25   22   23       1
    26   22   24      ar
    27   24   25      ar
    28   25   26      ar
    29   26   27      ar
    30    1   28       1
    31    1   29       1
    32    2   30       1
    33    1   50       1
    34    6   31       1
    35    6   32       1
    36    7   33       1
    37    7   34       1
    38    9   35       1
    39    9   36       1
    40    9   37       1
    41   10   38       1
    42   10   39       1
    43   11   40       1
    44   13   41       1
    45   14   42       1
    46   15   43       1
    47   16   44       1
    48   17   45       1
    49   19   46       1
    50   23   47       1
    51   23   48       1
    52   25   49       1
@<TRIPOS>SUBSTRUCTURE
     1 SAM397      1 GROUP             4 A     SAM     0 **** SAM A 397
