@<TRIPOS>MOLECULE
4zo3_C6L_1_ligand
   33    32     1     0     0
SMALL
NO_CHARGES


@<TRIPOS>ATOM
     1 O4           6.7600    -1.0070   -55.2230 O.2          1 C6L403   0.0000
     2 C5           7.9540    -1.0190   -55.4160 C.2          1 C6L403   0.0000
     3 C6           8.5020    -1.0120   -56.8260 C.3          1 C6L403   0.0000
     4 C7           7.4240    -0.7600   -57.8540 C.3          1 C6L403   0.0000
     5 C8           8.0980    -0.6210   -59.2000 C.3          1 C6L403   0.0000
     6 C9           7.7990    -1.8460   -60.0340 C.3          1 C6L403   0.0000
     7 C10          8.0530    -1.5440   -61.4940 C.3          1 C6L403   0.0000
     8 N1           8.8850    -1.0420   -54.3420 N.am         1 C6L403   0.0000
     9 C3           8.5680    -1.0470   -52.9500 C.3          1 C6L403   0.0000
    10 C4           7.8920    -2.3250   -52.4980 C.2          1 C6L403   0.0000
    11 O2           7.2210    -3.0470   -53.2960 O.co2        1 C6L403   0.0000
    12 O1           8.0480    -2.6610   -51.3000 O.co2        1 C6L403  -1.0000
    13 C2           7.7500     0.1600   -52.5700 C.3          1 C6L403   0.0000
    14 C1           8.6240     1.3770   -52.7280 C.3          1 C6L403   0.0000
    15 O3           7.7790     2.5000   -52.7950 O.3          1 C6L403   0.0000
    16 H1           8.9240    -1.8993   -57.0123 H            1 C6L403   0.0000
    17 H2           9.1925    -0.2924   -56.8999 H            1 C6L403   0.0000
    18 H3           6.9307     0.0809   -57.6314 H            1 C6L403   0.0000
    19 H4           6.7834    -1.5277   -57.8713 H            1 C6L403   0.0000
    20 H5           9.0862    -0.5364   -59.0722 H            1 C6L403   0.0000
    21 H6           7.7511     0.1933   -59.6653 H            1 C6L403   0.0000
    22 H7           6.8415    -2.1066   -59.9103 H            1 C6L403   0.0000
    23 H8           8.3896    -2.5986   -59.7427 H            1 C6L403   0.0000
    24 H9           7.8541    -2.3565   -62.0420 H            1 C6L403   0.0000
    25 H10          7.4624    -0.7919   -61.7865 H            1 C6L403   0.0000
    26 H11          9.0105    -1.2839   -61.6189 H            1 C6L403   0.0000
    27 H12          9.8550    -1.0560   -54.5848 H            1 C6L403   0.0000
    28 H13          9.4332    -0.9822   -52.4528 H            1 C6L403   0.0000
    29 H14          7.4465     0.0801   -51.6205 H            1 C6L403   0.0000
    30 H15          6.9531     0.2333   -53.1696 H            1 C6L403   0.0000
    31 H16          9.1619     1.3041   -53.5678 H            1 C6L403   0.0000
    32 H17          9.2394     1.4593   -51.9441 H            1 C6L403   0.0000
    33 H18          6.9047     2.2355   -53.2021 H            1 C6L403   0.0000
@<TRIPOS>BOND
     1    1    2       2
     2    2    3       1
     3    2    8      am
     4    3    4       1
     5    4    5       1
     6    5    6       1
     7    6    7       1
     8    8    9       1
     9    9   10       1
    10    9   13       1
    11   10   11      ar
    12   10   12      ar
    13   13   14       1
    14   14   15       1
    15    3   16       1
    16    3   17       1
    17    4   18       1
    18    4   19       1
    19    5   20       1
    20    5   21       1
    21    6   22       1
    22    6   23       1
    23    7   24       1
    24    7   25       1
    25    7   26       1
    26    8   27       1
    27    9   28       1
    28   15   33       1
    29   13   29       1
    30   13   30       1
    31   14   31       1
    32   14   32       1
@<TRIPOS>SUBSTRUCTURE
     1 C6L403      1 GROUP             4 A     C6L     0 **** C6L A 403
