@<TRIPOS>MOLECULE
3tvq_DQH_1_ligand
   33    35     1     0     0
SMALL
NO_CHARGES


@<TRIPOS>ATOM
     1 C1          65.1290     3.7120    27.5580 C.ar         1 DQH380   0.0000
     2 C2          64.8730     3.9260    26.1690 C.ar         1 DQH380   0.0000
     3 C3          63.7750     4.8040    25.7240 C.ar         1 DQH380   0.0000
     4 C4          62.9610     5.4520    26.7910 C.ar         1 DQH380   0.0000
     5 C5          63.2260     5.2340    28.1590 C.ar         1 DQH380   0.0000
     6 C6          64.2910     4.3770    28.5330 C.ar         1 DQH380   0.0000
     7 C9          63.4300     5.0800    24.3120 C.2          1 DQH380   0.0000
     8 C10         62.2220     5.9940    24.0490 C.3          1 DQH380   0.0000
     9 C11         61.9920     7.0130    25.1700 C.3          1 DQH380   0.0000
    10 C14         60.8000     7.9370    25.0310 C.ar         1 DQH380   0.0000
    11 C15         59.4990     7.3820    24.7530 C.ar         1 DQH380   0.0000
    12 C16         58.3380     8.2040    24.6080 C.ar         1 DQH380   0.0000
    13 C17         58.4730     9.6070    24.7420 C.ar         1 DQH380   0.0000
    14 C18         59.7700    10.1920    25.0240 C.ar         1 DQH380   0.0000
    15 C19         60.9200     9.3630    25.1660 C.ar         1 DQH380   0.0000
    16 O12         61.8990     6.3060    26.4740 O.3          1 DQH380   0.0000
    17 O13         64.0650     4.5820    23.3460 O.2          1 DQH380   0.0000
    18 O23         59.8990    11.5610    25.1550 O.3          1 DQH380   0.0000
    19 O24         57.4010    10.4480    24.6100 O.3          1 DQH380  -1.0000
    20 O27         62.3430     6.6420    22.7950 O.3          1 DQH380   0.0000
    21 O29         64.5480     4.1590    29.8440 O.3          1 DQH380   0.0000
    22 O30         65.6590     3.2990    25.2640 O.3          1 DQH380   0.0000
    23 H1          65.8742     3.1132    27.8516 H            1 DQH380   0.0000
    24 H2          62.6676     5.6800    28.8585 H            1 DQH380   0.0000
    25 H3          61.4109     5.4106    24.0058 H            1 DQH380   0.0000
    26 H4          62.8065     7.5918    25.2096 H            1 DQH380   0.0000
    27 H5          59.4055     6.3909    24.6586 H            1 DQH380   0.0000
    28 H6          57.4461     7.7950    24.4153 H            1 DQH380   0.0000
    29 H7          61.8111     9.7734    25.3597 H            1 DQH380   0.0000
    30 H8          60.7940    11.9626    25.3494 H            1 DQH380   0.0000
    31 H9          61.9195     6.0780    22.0861 H            1 DQH380   0.0000
    32 H10         63.9882     4.6028    30.5438 H            1 DQH380   0.0000
    33 H11         65.4999     3.4327    24.2858 H            1 DQH380   0.0000
@<TRIPOS>BOND
     1    1    2      ar
     2    1    6      ar
     3    2    3      ar
     4    2   22       1
     5    3    4      ar
     6    3    7       1
     7    4    5      ar
     8    4   16       1
     9    5    6      ar
    10    6   21       1
    11    7    8       1
    12    7   17       2
    13    8    9       1
    14    8   20       1
    15    9   10       1
    16    9   16       1
    17   10   11      ar
    18   10   15      ar
    19   11   12      ar
    20   12   13      ar
    21   13   14      ar
    22   13   19       1
    23   14   15      ar
    24   14   18       1
    25    1   23       1
    26    5   24       1
    27    8   25       1
    28    9   26       1
    29   11   27       1
    30   12   28       1
    31   15   29       1
    32   18   30       1
    33   22   33       1
    34   20   31       1
    35   21   32       1
@<TRIPOS>SUBSTRUCTURE
     1 DQH380      1 GROUP             4 A     DQH     0 **** DQH A 380
