@<TRIPOS>MOLECULE
2zwv_SAH_1_ligand
   44    46     1     0     0
SMALL
NO_CHARGES


@<TRIPOS>ATOM
     1 N           24.2720    14.6840    22.4760 N.4          1 SAH376   1.0000
     2 CA          23.7760    13.3820    22.0050 C.3          1 SAH376   0.0000
     3 CB          24.9080    12.6120    21.3230 C.2          1 SAH376   0.0000
     4 CG          25.9910    12.1560    22.0660 C.2          1 SAH376   0.0000
     5 SD          27.2870    11.2660    21.2950 S.3          1 SAH376   0.0000
     6 C           23.2580    12.5800    23.2000 C.2          1 SAH376   0.0000
     7 O           22.6350    11.5200    22.9450 O.co2        1 SAH376   0.0000
     8 OXT         23.4930    13.0330    24.3360 O.co2        1 SAH376  -1.0000
     9 C5'         28.3180    12.6210    20.6250 C.3          1 SAH376   0.0000
    10 C4'         27.6830    13.3440    19.4350 C.3          1 SAH376   0.0000
    11 O4'         28.6570    14.2690    18.9180 O.3          1 SAH376   0.0000
    12 C3'         27.3890    12.3500    18.3080 C.3          1 SAH376   0.0000
    13 O3'         26.1900    12.7280    17.6270 O.3          1 SAH376   0.0000
    14 C2'         28.5900    12.5520    17.3860 C.3          1 SAH376   0.0000
    15 O2'         28.2240    12.2030    16.0490 O.3          1 SAH376   0.0000
    16 C1'         28.6810    14.0720    17.4960 C.3          1 SAH376   0.0000
    17 N9          29.9340    14.5870    16.8950 N.pl3        1 SAH376   0.0000
    18 C8          31.0400    13.8810    16.6630 C.2          1 SAH376   0.0000
    19 N7          31.9600    14.6670    16.1040 N.2          1 SAH376   0.0000
    20 C5          31.4370    15.8780    15.9790 C.ar         1 SAH376   0.0000
    21 C6          31.9050    17.0920    15.4770 C.ar         1 SAH376   0.0000
    22 N6          33.1250    17.1810    14.9570 N.pl3        1 SAH376   0.0000
    23 N1          31.0980    18.1570    15.5060 N.ar         1 SAH376   0.0000
    24 C2          29.8720    18.0730    15.9990 C.ar         1 SAH376   0.0000
    25 N3          29.3930    16.9430    16.4790 N.ar         1 SAH376   0.0000
    26 C4          30.1470    15.8290    16.4850 C.ar         1 SAH376   0.0000
    27 H1          23.5259    15.3497    22.4622 H            1 SAH376   0.0000
    28 H2          24.6184    14.5909    23.4094 H            1 SAH376   0.0000
    29 HA          23.0315    13.5257    21.3530 H            1 SAH376   0.0000
    30 HB          24.8690    12.4360    20.3394 H            1 SAH376   0.0000
    31 HG          26.0302    12.3377    23.0486 H            1 SAH376   0.0000
    32 H5'1        29.1930    12.2365    20.3309 H            1 SAH376   0.0000
    33 H5'2        28.4750    13.2883    21.3531 H            1 SAH376   0.0000
    34 H4'         26.8503    13.8229    19.7130 H            1 SAH376   0.0000
    35 H3'         27.3393    11.4110    18.6483 H            1 SAH376   0.0000
    36 H10         26.3012    13.6431    17.2393 H            1 SAH376   0.0000
    37 H2'         29.4143    12.0837    17.7041 H            1 SAH376   0.0000
    38 H12         27.8678    13.0108    15.5793 H            1 SAH376   0.0000
    39 H1'         27.8854    14.5022    17.0694 H            1 SAH376   0.0000
    40 H14         31.1611    12.9114    16.8754 H            1 SAH376   0.0000
    41 H15         33.4534    18.0551    14.5990 H            1 SAH376   0.0000
    42 H16         33.7144    16.3739    14.9237 H            1 SAH376   0.0000
    43 H17         29.2940    18.8890    16.0073 H            1 SAH376   0.0000
    44 H18         25.0089    14.9966    21.8766 H            1 SAH376   0.0000
@<TRIPOS>BOND
     1    1    2       1
     2    2    3       1
     3    2    6       1
     4    3    4       2
     5    4    5       1
     6    5    9       1
     7    6    7      ar
     8    6    8      ar
     9    9   10       1
    10   10   11       1
    11   10   12       1
    12   11   16       1
    13   12   13       1
    14   12   14       1
    15   14   15       1
    16   14   16       1
    17   16   17       1
    18   17   18       1
    19   17   26       1
    20   18   19       2
    21   19   20       1
    22   20   21      ar
    23   20   26      ar
    24   21   22       1
    25   21   23      ar
    26   23   24      ar
    27   24   25      ar
    28   25   26      ar
    29    1   27       1
    30    1   28       1
    31    2   29       1
    32    3   30       1
    33    4   31       1
    34    1   44       1
    35    9   32       1
    36    9   33       1
    37   10   34       1
    38   12   35       1
    39   13   36       1
    40   14   37       1
    41   15   38       1
    42   16   39       1
    43   18   40       1
    44   22   41       1
    45   22   42       1
    46   24   43       1
@<TRIPOS>SUBSTRUCTURE
     1 SAH376      1 GROUP             4 A     SAH     0 **** SAH A 376
