@<TRIPOS>MOLECULE
2mas_PIR_2_ligand
   33    34     1     0     0
SMALL
NO_CHARGES


@<TRIPOS>ATOM
     1 C1         105.2900     1.6400    48.5430 C.ar         1 PIR400   0.0000
     2 C2         105.0850     3.0230    48.3320 C.ar         1 PIR400   0.0000
     3 C3         105.7890     3.9480    49.1020 C.ar         1 PIR400   0.0000
     4 C4         106.4510     3.5290    50.2620 C.ar         1 PIR400   0.0000
     5 C5         106.6040     2.1360    50.5260 C.ar         1 PIR400   0.0000
     6 N5         107.1990     1.7240    51.6780 N.pl3        1 PIR400   0.0000
     7 C6         106.1310     1.1900    49.5930 C.ar         1 PIR400   0.0000
     8 C1'        104.1120     3.4880    47.2860 C.3          1 PIR400   0.0000
     9 C2'        103.7670     2.3890    46.2570 C.3          1 PIR400   0.0000
    10 O2'        104.2810     2.7400    44.9990 O.3          1 PIR400   0.0000
    11 C3'        102.2380     2.3660    46.1790 C.3          1 PIR400   0.0000
    12 O3'        101.7670     3.1280    45.0670 O.3          1 PIR400   0.0000
    13 C4'        101.7720     2.9770    47.5060 C.3          1 PIR400   0.0000
    14 N4'        102.8240     3.9790    47.7680 N.4          1 PIR400   1.0000
    15 C5'        101.6790     2.0080    48.6770 C.3          1 PIR400   0.0000
    16 O5'        101.7900     2.7090    49.8970 O.3          1 PIR400   0.0000
    17 H1         104.8391     0.9746    47.9480 H            1 PIR400   0.0000
    18 H2         105.8209     4.9087    48.8261 H            1 PIR400   0.0000
    19 H3         106.8154     4.2042    50.9034 H            1 PIR400   0.0000
    20 H4         107.3065     0.7473    51.8636 H            1 PIR400   0.0000
    21 H5         107.5288     2.3979    52.3391 H            1 PIR400   0.0000
    22 H6         106.3825     0.2252    49.6698 H            1 PIR400   0.0000
    23 H1'        104.5477     4.2368    46.7865 H            1 PIR400   0.0000
    24 H2'        104.1218     1.5016    46.5515 H            1 PIR400   0.0000
    25 H9         104.9270     2.0395    44.6956 H            1 PIR400   0.0000
    26 H3'        101.9149     1.4224    46.1065 H            1 PIR400   0.0000
    27 H11        101.2465     2.5347    44.4529 H            1 PIR400   0.0000
    28 H4'        100.8930     3.4359    47.3765 H            1 PIR400   0.0000
    29 H4'1       102.5959     4.8301    47.2951 H            1 PIR400   0.0000
    30 H5'1       102.4189     1.3385    48.6118 H            1 PIR400   0.0000
    31 H5'2       100.7982     1.5355    48.6461 H            1 PIR400   0.0000
    32 H5'        101.0501     3.3782    49.9654 H            1 PIR400   0.0000
    33 H4'2       102.8815     4.1494    48.7517 H            1 PIR400   0.0000
@<TRIPOS>BOND
     1    1    2      ar
     2    1    7      ar
     3    2    3      ar
     4    2    8       1
     5    3    4      ar
     6    4    5      ar
     7    5    6       1
     8    5    7      ar
     9    8    9       1
    10    8   14       1
    11    9   10       1
    12    9   11       1
    13   11   12       1
    14   11   13       1
    15   13   14       1
    16   13   15       1
    17   15   16       1
    18    1   17       1
    19    3   18       1
    20    4   19       1
    21    6   20       1
    22    6   21       1
    23    7   22       1
    24    8   23       1
    25    9   24       1
    26   10   25       1
    27   11   26       1
    28   12   27       1
    29   13   28       1
    30   14   29       1
    31   15   30       1
    32   15   31       1
    33   16   32       1
    34   14   33       1
@<TRIPOS>SUBSTRUCTURE
     1 PIR400      1 GROUP             4 B     PIR     0 **** PIR B 400
