@<TRIPOS>MOLECULE
3r7c_FAD_4_ligand
   84    89     1     0     0
SMALL
NO_CHARGES


@<TRIPOS>ATOM
     1 PA          26.4130    55.8510    74.8750 P.3          1 FAD126   0.0000
     2 O1A         26.1090    55.5310    73.4330 O.co2        1 FAD126   0.0000
     3 O2A         27.4710    56.9220    74.9800 O.co2        1 FAD126  -1.0000
     4 O5B         26.8720    54.5280    75.6470 O.3          1 FAD126   0.0000
     5 C5B         26.0760    53.3780    75.5170 C.3          1 FAD126   0.0000
     6 C4B         26.2540    52.5160    76.7580 C.3          1 FAD126   0.0000
     7 O4B         27.5800    52.0320    76.8290 O.3          1 FAD126   0.0000
     8 C3B         26.0380    53.3040    78.0370 C.3          1 FAD126   0.0000
     9 O3B         24.6890    53.2900    78.4350 O.3          1 FAD126   0.0000
    10 C2B         26.9080    52.5710    79.0310 C.3          1 FAD126   0.0000
    11 O2B         26.1680    51.5260    79.6340 O.3          1 FAD126   0.0000
    12 C1B         28.0100    51.9840    78.1760 C.3          1 FAD126   0.0000
    13 N9A         29.2190    52.8180    78.2410 N.pl3        1 FAD126   0.0000
    14 C8A         29.2980    54.1750    78.4530 C.2          1 FAD126   0.0000
    15 N7A         30.6010    54.5380    78.4090 N.2          1 FAD126   0.0000
    16 C5A         31.3520    53.4390    78.1670 C.ar         1 FAD126   0.0000
    17 C6A         32.7190    53.2370    78.0250 C.ar         1 FAD126   0.0000
    18 N6A         33.5610    54.2700    77.9190 N.pl3        1 FAD126   0.0000
    19 N1A         33.1800    51.9660    77.7660 N.ar         1 FAD126   0.0000
    20 C2A         32.3110    50.9120    77.6600 C.ar         1 FAD126   0.0000
    21 N3A         30.9620    51.1230    77.8030 N.ar         1 FAD126   0.0000
    22 C4A         30.4940    52.3590    78.0530 C.ar         1 FAD126   0.0000
    23 N1          27.4810    62.1130    69.5820 N.2          1 FAD126   0.0000
    24 C2          27.6290    63.4900    69.4920 C.2          1 FAD126   0.0000
    25 O2          26.7690    64.2430    69.9260 O.2          1 FAD126   0.0000
    26 N3          28.7470    64.0450    68.9210 N.pl3        1 FAD126   0.0000
    27 C4          29.7310    63.2230    68.4310 C.2          1 FAD126   0.0000
    28 O4          30.7230    63.7330    67.9230 O.2          1 FAD126   0.0000
    29 C4X         29.5950    61.8360    68.5060 C.2          1 FAD126   0.0000
    30 N5          30.5850    61.0190    68.0010 N.2          1 FAD126   0.0000
    31 C5X         30.4520    59.6510    68.0850 C.ar         1 FAD126   0.0000
    32 C6          31.4620    58.8420    67.5730 C.ar         1 FAD126   0.0000
    33 C7          31.3420    57.4580    67.6400 C.ar         1 FAD126   0.0000
    34 C7M         32.4430    56.6050    67.0780 C.3          1 FAD126   0.0000
    35 C8          30.2110    56.8780    68.2220 C.ar         1 FAD126   0.0000
    36 C8M         30.0910    55.3820    68.3000 C.3          1 FAD126   0.0000
    37 C9          29.2040    57.6910    68.7400 C.ar         1 FAD126   0.0000
    38 C9A         29.3210    59.0810    68.6740 C.ar         1 FAD126   0.0000
    39 N10         28.3240    59.9010    69.1760 N.pl3        1 FAD126   0.0000
    40 C10         28.4620    61.2770    69.0890 C.2          1 FAD126   0.0000
    41 C1'         27.0990    59.3120    69.8190 C.3          1 FAD126   0.0000
    42 C2'         27.3380    59.2930    71.3340 C.3          1 FAD126   0.0000
    43 O2'         28.6370    58.8210    71.6150 O.3          1 FAD126   0.0000
    44 C3'         26.3360    58.4300    72.0980 C.3          1 FAD126   0.0000
    45 O3'         26.2360    57.1660    71.4780 O.3          1 FAD126   0.0000
    46 C4'         24.9500    59.0720    72.1950 C.3          1 FAD126   0.0000
    47 O4'         25.0700    60.3450    72.7970 O.3          1 FAD126   0.0000
    48 C5'         24.0340    58.2350    73.0770 C.3          1 FAD126   0.0000
    49 O5'         24.5480    58.3100    74.3920 O.3          1 FAD126   0.0000
    50 P           24.0170    57.3490    75.5700 P.3          1 FAD126   0.0000
    51 O1P         24.0130    58.1310    76.8610 O.co2        1 FAD126   0.0000
    52 O2P         22.6490    56.8160    75.2420 O.co2        1 FAD126  -1.0000
    53 O3P         25.0530    56.1180    75.7040 O.3          1 FAD126   0.0000
    54 H5B1        26.3582    52.8637    74.7072 H            1 FAD126   0.0000
    55 H5B2        25.1158    53.6423    75.4262 H            1 FAD126   0.0000
    56 H4B         25.6167    51.7460    76.7263 H            1 FAD126   0.0000
    57 H3B         26.3571    54.2449    77.9235 H            1 FAD126   0.0000
    58 H5          24.1039    53.2168    77.6273 H            1 FAD126   0.0000
    59 H2B         27.2775    53.1961    79.7185 H            1 FAD126   0.0000
    60 H7          25.7142    51.8702    80.4560 H            1 FAD126   0.0000
    61 H1B         28.2113    51.0440    78.4516 H            1 FAD126   0.0000
    62 H8A         28.5246    54.7885    78.6124 H            1 FAD126   0.0000
    63 H6A1        34.5423    54.1068    77.8174 H            1 FAD126   0.0000
    64 H6A2        33.2095    55.2059    77.9414 H            1 FAD126   0.0000
    65 H2A         32.6583    49.9919    77.4790 H            1 FAD126   0.0000
    66 H13         28.8437    65.0386    68.8625 H            1 FAD126   0.0000
    67 H14         32.2725    59.2550    67.1577 H            1 FAD126   0.0000
    68 H7M1        32.2122    55.6397    67.2002 H            1 FAD126   0.0000
    69 H7M2        32.5520    56.8008    66.1034 H            1 FAD126   0.0000
    70 H7M3        33.2979    56.8065    67.5561 H            1 FAD126   0.0000
    71 H8M1        29.2274    55.1395    68.7421 H            1 FAD126   0.0000
    72 H8M2        30.1126    54.9973    67.3772 H            1 FAD126   0.0000
    73 H8M3        30.8531    55.0138    68.8326 H            1 FAD126   0.0000
    74 H21         28.3959    57.2778    69.1599 H            1 FAD126   0.0000
    75 H1'1        26.9520    58.3810    69.4848 H            1 FAD126   0.0000
    76 H1'2        26.2987    59.8727    69.6065 H            1 FAD126   0.0000
    77 H2'         27.2658    60.2308    71.6737 H            1 FAD126   0.0000
    78 H25         28.7819    58.8128    72.6044 H            1 FAD126   0.0000
    79 H3'         26.6835    58.2958    73.0260 H            1 FAD126   0.0000
    80 H27         26.0128    56.4745    72.1650 H            1 FAD126   0.0000
    81 H4'         24.5527    59.1635    71.2819 H            1 FAD126   0.0000
    82 H29         24.1668    60.7691    72.8628 H            1 FAD126   0.0000
    83 H5'1        24.0287    57.2854    72.7636 H            1 FAD126   0.0000
    84 H5'2        23.1034    58.6001    73.0503 H            1 FAD126   0.0000
@<TRIPOS>BOND
     1    1    2      ar
     2    1    3      ar
     3    1    4       1
     4    1   53       1
     5    4    5       1
     6    5    6       1
     7    6    7       1
     8    6    8       1
     9    7   12       1
    10    8    9       1
    11    8   10       1
    12   10   11       1
    13   10   12       1
    14   12   13       1
    15   13   14       1
    16   13   22       1
    17   14   15       2
    18   15   16       1
    19   16   17      ar
    20   16   22      ar
    21   17   18       1
    22   17   19      ar
    23   19   20      ar
    24   20   21      ar
    25   21   22      ar
    26   23   24       1
    27   23   40       2
    28   24   25       2
    29   24   26       1
    30   26   27       1
    31   27   28       2
    32   27   29       1
    33   29   30       2
    34   29   40       1
    35   30   31       1
    36   31   32      ar
    37   31   38      ar
    38   32   33      ar
    39   33   34       1
    40   33   35      ar
    41   35   36       1
    42   35   37      ar
    43   37   38      ar
    44   38   39       1
    45   39   40       1
    46   39   41       1
    47   41   42       1
    48   42   43       1
    49   42   44       1
    50   44   45       1
    51   44   46       1
    52   46   47       1
    53   46   48       1
    54   48   49       1
    55   49   50       1
    56   50   51      ar
    57   50   52      ar
    58   50   53       1
    59   48   84       1
    60    5   54       1
    61    5   55       1
    62    6   56       1
    63    8   57       1
    64    9   58       1
    65   10   59       1
    66   11   60       1
    67   12   61       1
    68   14   62       1
    69   18   63       1
    70   18   64       1
    71   20   65       1
    72   26   66       1
    73   32   67       1
    74   34   68       1
    75   34   69       1
    76   34   70       1
    77   36   71       1
    78   36   72       1
    79   36   73       1
    80   37   74       1
    81   41   75       1
    82   41   76       1
    83   42   77       1
    84   43   78       1
    85   44   79       1
    86   45   80       1
    87   46   81       1
    88   47   82       1
    89   48   83       1
@<TRIPOS>SUBSTRUCTURE
     1 FAD126      1 GROUP             4 D     FAD     0 **** FAD D 126
