@<TRIPOS>MOLECULE
2g0e_CGQ_1_ligand
   47    48     1     0     0
SMALL
NO_CHARGES


@<TRIPOS>ATOM
     1 C1         -60.1130   -45.4240    -1.0200 C.ar         1 CGQ3025   0.0000
     2 C2         -59.9510   -45.1620     0.3380 C.ar         1 CGQ3025   0.0000
     3 C3         -60.9460   -45.5290     1.2400 C.ar         1 CGQ3025   0.0000
     4 C4         -62.1070   -46.1470     0.7850 C.ar         1 CGQ3025   0.0000
     5 C5         -62.2720   -46.4140    -0.5700 C.ar         1 CGQ3025   0.0000
     6 C6         -61.2710   -46.0540    -1.4670 C.ar         1 CGQ3025   0.0000
     7 C7         -60.7580   -45.3490     2.6060 C.2          1 CGQ3025   0.0000
     8 N8         -61.7010   -45.7760     3.4240 N.2          1 CGQ3025   0.0000
     9 C9         -59.1410   -45.0320    -1.9340 C.cat        1 CGQ3025   0.0000
    10 N10        -58.0580   -44.3790    -1.5240 N.pl3        1 CGQ3025   1.0000
    11 N11        -59.2880   -45.3050    -3.2280 N.pl3        1 CGQ3025   0.0000
    12 N12        -61.6100   -45.6730     4.6460 N.2          1 CGQ3025   0.0000
    13 C13        -62.6220   -46.1290     5.3790 C.2          1 CGQ3025   0.0000
    14 N15        -63.6800   -46.6580     4.7730 N.pl3        1 CGQ3025   0.0000
    15 N19        -62.5930   -46.0660     6.7060 N.pl3        1 CGQ3025   0.0000
    16 N20        -63.6710   -46.5410     7.3860 N.2          1 CGQ3025   0.0000
    17 C21        -63.4940   -46.4590     8.7010 C.2          1 CGQ3025   0.0000
    18 C22        -64.5890   -46.5840     9.5480 C.ar         1 CGQ3025   0.0000
    19 C23        -64.4020   -46.5810    10.9260 C.ar         1 CGQ3025   0.0000
    20 C24        -65.4840   -46.7780    11.7810 C.ar         1 CGQ3025   0.0000
    21 C25        -66.7570   -46.9710    11.2560 C.ar         1 CGQ3025   0.0000
    22 C26        -66.9510   -46.9690     9.8770 C.ar         1 CGQ3025   0.0000
    23 C27        -65.8670   -46.7800     9.0270 C.ar         1 CGQ3025   0.0000
    24 C28        -68.2330   -47.1230     9.3570 C.cat        1 CGQ3025   0.0000
    25 N29        -69.2840   -47.1580    10.1710 N.pl3        1 CGQ3025   1.0000
    26 N30        -68.4150   -47.2390     8.0450 N.pl3        1 CGQ3025   0.0000
    27 H1         -59.1207   -44.7107     0.6650 H            1 CGQ3025   0.0000
    28 H2         -62.8245   -46.3998     1.4340 H            1 CGQ3025   0.0000
    29 H3         -63.1042   -46.8616    -0.8973 H            1 CGQ3025   0.0000
    30 H4         -61.3845   -46.2495    -2.4411 H            1 CGQ3025   0.0000
    31 H5         -59.9321   -44.9087     2.9581 H            1 CGQ3025   0.0000
    32 H6         -57.3622   -44.0995    -2.1857 H            1 CGQ3025   0.0000
    33 H7         -57.9391   -44.1673    -0.5539 H            1 CGQ3025   0.0000
    34 H8         -58.5865   -45.0212    -3.8817 H            1 CGQ3025   0.0000
    35 H9         -64.4459   -47.0036     5.3152 H            1 CGQ3025   0.0000
    36 H10        -63.7102   -46.7104     3.7748 H            1 CGQ3025   0.0000
    37 H11        -62.5801   -46.3085     9.0779 H            1 CGQ3025   0.0000
    38 H12        -63.4877   -46.4369    11.3045 H            1 CGQ3025   0.0000
    39 H13        -65.3453   -46.7806    12.7713 H            1 CGQ3025   0.0000
    40 H14        -67.5342   -47.1114    11.8694 H            1 CGQ3025   0.0000
    41 H15        -66.0049   -46.7847     8.0366 H            1 CGQ3025   0.0000
    42 H16        -70.2040   -47.2687     9.7952 H            1 CGQ3025   0.0000
    43 H17        -69.1543   -47.0736    11.1590 H            1 CGQ3025   0.0000
    44 H18        -69.3379   -47.3494     7.6761 H            1 CGQ3025   0.0000
    45 H19        -60.1000   -45.7940    -3.5468 H            1 CGQ3025   0.0000
    46 H20        -61.8054   -45.6824     7.1883 H            1 CGQ3025   0.0000
    47 H21        -67.6290   -47.2158     7.4272 H            1 CGQ3025   0.0000
@<TRIPOS>BOND
     1    1    2      ar
     2    1    6      ar
     3    1    9       1
     4    2    3      ar
     5    3    4      ar
     6    3    7       1
     7    4    5      ar
     8    5    6      ar
     9    7    8       2
    10    8   12       1
    11    9   10      ar
    12    9   11      ar
    13   12   13       2
    14   13   14       1
    15   13   15       1
    16   15   16       1
    17   16   17       2
    18   17   18       1
    19   18   19      ar
    20   18   23      ar
    21   19   20      ar
    22   20   21      ar
    23   21   22      ar
    24   22   23      ar
    25   22   24       1
    26   24   25      ar
    27   24   26      ar
    28    2   27       1
    29    4   28       1
    30    5   29       1
    31    6   30       1
    32    7   31       1
    33   10   32       1
    34   10   33       1
    35   11   34       1
    36   11   45       1
    37   14   35       1
    38   14   36       1
    39   17   37       1
    40   19   38       1
    41   20   39       1
    42   21   40       1
    43   23   41       1
    44   25   42       1
    45   25   43       1
    46   26   44       1
    47   26   47       1
    48   15   46       1
@<TRIPOS>SUBSTRUCTURE
     1 CGQ3025     1 GROUP             4 D     CGQ     0 **** CGQ D3025
