@<TRIPOS>MOLECULE
5a01_12V_1_ligand
   64    66     1     0     0
SMALL
NO_CHARGES


@<TRIPOS>ATOM
     1 N1          82.8520   -13.0090   -33.4600 N.pl3        1 12V2060   0.0000
     2 C2          83.1360   -11.7370   -33.8110 C.2          1 12V2060   0.0000
     3 O2          82.2470   -10.9190   -34.0110 O.2          1 12V2060   0.0000
     4 N3          84.4550   -11.3080   -33.9650 N.pl3        1 12V2060   0.0000
     5 C4          85.5100   -12.2000   -33.7670 C.2          1 12V2060   0.0000
     6 O4          86.6760   -11.8230   -33.9190 O.2          1 12V2060   0.0000
     7 C5          85.2290   -13.5090   -33.3960 C.2          1 12V2060   0.0000
     8 C6          83.9050   -13.9160   -33.2490 C.2          1 12V2060   0.0000
     9 PA          79.8290   -17.2950   -29.0620 P.3          1 12V2060   0.0000
    10 PB          79.0330   -19.7920   -30.0430 P.3          1 12V2060   0.0000
    11 C1'         76.7450   -20.0050   -28.7840 C.3          1 12V2060   0.0000
    12 O1'         77.5080   -20.1370   -29.9860 O.3          1 12V2060   0.0000
    13 O1A         78.8310   -16.8390   -28.0840 O.co2        1 12V2060   0.0000
    14 C1B         81.4460   -13.4530   -33.3000 C.3          1 12V2060   0.0000
    15 O1B         79.6180   -20.1920   -31.3640 O.co2        1 12V2060   0.0000
    16 C2'         76.2130   -21.3760   -28.4140 C.3          1 12V2060   0.0000
    17 N2'         77.3260   -22.2950   -28.1800 N.am         1 12V2060   0.0000
    18 O2'         80.8370   -14.3930   -35.5180 O.3          1 12V2060   0.0000
    19 O2A         81.0570   -17.9390   -28.5740 O.co2        1 12V2060  -1.0000
    20 C2B         81.1320   -14.6860   -34.1280 C.3          1 12V2060   0.0000
    21 O2B         79.5730   -20.3280   -28.7860 O.co2        1 12V2060  -1.0000
    22 C3'         75.4160   -21.9670   -29.6100 C.3          1 12V2060   0.0000
    23 O3'         75.0900   -23.3280   -29.3620 O.3          1 12V2060   0.0000
    24 O3A         79.0260   -18.1960   -30.0660 O.3          1 12V2060   0.0000
    25 C3B         79.8790   -15.1630   -33.4410 C.3          1 12V2060   0.0000
    26 O3B         78.6930   -14.3900   -33.8440 O.3          1 12V2060   0.0000
    27 C4'         74.1440   -21.2150   -29.9620 C.3          1 12V2060   0.0000
    28 O4'         73.5710   -21.9080   -31.1100 O.3          1 12V2060   0.0000
    29 C4B         80.2030   -14.9040   -31.9780 C.3          1 12V2060   0.0000
    30 O4B         81.2270   -13.8890   -31.9540 O.3          1 12V2060   0.0000
    31 C5'         74.5070   -19.7930   -30.3670 C.3          1 12V2060   0.0000
    32 S5'         75.3200   -18.9610   -29.0500 S.3          1 12V2060   0.0000
    33 C5B         80.6870   -16.2030   -31.3190 C.3          1 12V2060   0.0000
    34 O5B         80.3390   -16.0760   -29.9680 O.3          1 12V2060   0.0000
    35 C6'         73.2950   -18.9110   -30.6420 C.3          1 12V2060   0.0000
    36 O6'         72.2990   -19.2180   -29.6800 O.3          1 12V2060   0.0000
    37 C7'         77.6090   -22.7580   -26.9740 C.2          1 12V2060   0.0000
    38 O7'         77.0220   -22.4130   -25.9650 O.2          1 12V2060   0.0000
    39 C8'         78.7270   -23.7800   -26.8900 C.3          1 12V2060   0.0000
    40 H1          84.6447   -10.3593   -34.2178 H            1 12V2060   0.0000
    41 H2          85.9741   -14.1563   -33.2352 H            1 12V2060   0.0000
    42 H3          83.7020   -14.8607   -32.9914 H            1 12V2060   0.0000
    43 H1'         77.3136   -19.6397   -28.0470 H            1 12V2060   0.0000
    44 H1B         80.8182   -12.7098   -33.5312 H            1 12V2060   0.0000
    45 H2'         75.6320   -21.3175   -27.6022 H            1 12V2060   0.0000
    46 H7          77.8897   -22.5818   -28.9546 H            1 12V2060   0.0000
    47 H8          81.1145   -15.1665   -36.0879 H            1 12V2060   0.0000
    48 H2B         81.8628   -15.3644   -34.0520 H            1 12V2060   0.0000
    49 H3'         76.0129   -21.9414   -30.4119 H            1 12V2060   0.0000
    50 H11         74.2325   -23.5548   -29.8238 H            1 12V2060   0.0000
    51 H3B         79.7365   -16.1393   -33.6039 H            1 12V2060   0.0000
    52 H13         77.8882   -14.7403   -33.3649 H            1 12V2060   0.0000
    53 H4'         73.5062   -21.2141   -29.1918 H            1 12V2060   0.0000
    54 H15         72.6579   -22.2419   -30.8761 H            1 12V2060   0.0000
    55 H4B         79.3869   -14.5705   -31.5061 H            1 12V2060   0.0000
    56 H5'         75.1003   -19.8121   -31.1717 H            1 12V2060   0.0000
    57 H5B1        81.6772   -16.3001   -31.4192 H            1 12V2060   0.0000
    58 H5B2        80.2315   -16.9946   -31.7263 H            1 12V2060   0.0000
    59 H6'1        72.9456   -19.0922   -31.5613 H            1 12V2060   0.0000
    60 H6'2        73.5529   -17.9477   -30.5673 H            1 12V2060   0.0000
    61 H6'         71.7445   -18.4048   -29.5031 H            1 12V2060   0.0000
    62 H8'1        78.8535   -24.0582   -25.9378 H            1 12V2060   0.0000
    63 H8'2        78.4901   -24.5794   -27.4421 H            1 12V2060   0.0000
    64 H8'3        79.5744   -23.3761   -27.2347 H            1 12V2060   0.0000
@<TRIPOS>BOND
     1    1    2       1
     2    1    8       1
     3    1   14       1
     4    2    3       2
     5    2    4       1
     6    4    5       1
     7    5    6       2
     8    5    7       1
     9    7    8       2
    10    9   13      ar
    11    9   19      ar
    12    9   24       1
    13    9   34       1
    14   10   12       1
    15   10   15      ar
    16   10   21      ar
    17   10   24       1
    18   11   12       1
    19   11   16       1
    20   11   32       1
    21   14   20       1
    22   14   30       1
    23   16   17       1
    24   16   22       1
    25   17   37      am
    26   18   20       1
    27   20   25       1
    28   22   23       1
    29   22   27       1
    30   25   26       1
    31   25   29       1
    32   27   28       1
    33   27   31       1
    34   29   30       1
    35   29   33       1
    36   31   32       1
    37   31   35       1
    38   33   34       1
    39   35   36       1
    40   37   38       2
    41   37   39       1
    42    4   40       1
    43    7   41       1
    44    8   42       1
    45   11   43       1
    46   39   64       1
    47   14   44       1
    48   39   63       1
    49   16   45       1
    50   17   46       1
    51   18   47       1
    52   20   48       1
    53   22   49       1
    54   23   50       1
    55   25   51       1
    56   26   52       1
    57   27   53       1
    58   28   54       1
    59   29   55       1
    60   31   56       1
    61   33   57       1
    62   33   58       1
    63   35   59       1
    64   35   60       1
    65   36   61       1
    66   39   62       1
@<TRIPOS>SUBSTRUCTURE
     1 12V2060     1 GROUP             4 A     12V     0 **** 12V A2060
