@<TRIPOS>MOLECULE
3o4r_NAP_4_ligand
   73    77     1     0     0
SMALL
NO_CHARGES


@<TRIPOS>ATOM
     1 PA          50.9510    14.0490    32.0470 P.3          1 NAP603   0.0000
     2 O1A         52.3350    13.5910    31.7220 O.co2        1 NAP603   0.0000
     3 O2A         50.6480    15.5320    31.9530 O.co2        1 NAP603  -1.0000
     4 O5B         50.6980    13.7010    33.5790 O.3          1 NAP603   0.0000
     5 C5B         50.7780    12.3150    33.9370 C.3          1 NAP603   0.0000
     6 C4B         50.5210    12.1440    35.4060 C.3          1 NAP603   0.0000
     7 O4B         50.4890    10.7400    35.6700 O.3          1 NAP603   0.0000
     8 C3B         51.6150    12.6890    36.3110 C.3          1 NAP603   0.0000
     9 O3B         50.9350    13.2920    37.4210 O.3          1 NAP603   0.0000
    10 C2B         52.4180    11.4840    36.7690 C.3          1 NAP603   0.0000
    11 O2B         53.0020    11.7520    38.0520 O.3          1 NAP603   0.0000
    12 C1B         51.3000    10.4690    36.8190 C.3          1 NAP603   0.0000
    13 N9A         51.6370     9.0150    36.7590 N.pl3        1 NAP603   0.0000
    14 C8A         52.3340     8.3820    35.8190 C.2          1 NAP603   0.0000
    15 N7A         52.3630     7.0260    36.1260 N.2          1 NAP603   0.0000
    16 C5A         51.6630     6.8790    37.2640 C.ar         1 NAP603   0.0000
    17 C6A         51.3290     5.8100    38.0680 C.ar         1 NAP603   0.0000
    18 N6A         51.7500     4.5670    37.7310 N.pl3        1 NAP603   0.0000
    19 N1A         50.5730     5.9980    39.1620 N.ar         1 NAP603   0.0000
    20 C2A         50.1550     7.2140    39.5170 C.ar         1 NAP603   0.0000
    21 N3A         50.4660     8.2750    38.7690 N.ar         1 NAP603   0.0000
    22 C4A         51.2040     8.1370    37.6560 C.ar         1 NAP603   0.0000
    23 O3          49.9920    13.0500    31.2200 O.3          1 NAP603   0.0000
    24 PN          48.4610    13.2570    30.7040 P.3          1 NAP603   0.0000
    25 O1N         48.5090    13.4380    29.2200 O.co2        1 NAP603   0.0000
    26 O2N         47.7400    14.2540    31.5680 O.co2        1 NAP603  -1.0000
    27 O5D         48.0120    11.7120    30.8000 O.3          1 NAP603   0.0000
    28 C5D         47.0700    11.2330    31.7450 C.3          1 NAP603   0.0000
    29 C4D         46.0190    10.3620    31.0630 C.3          1 NAP603   0.0000
    30 O4D         45.5180    11.0050    29.8910 O.3          1 NAP603   0.0000
    31 C3D         46.5120     8.9960    30.6340 C.3          1 NAP603   0.0000
    32 O3D         45.5730     8.0070    31.0810 O.3          1 NAP603   0.0000
    33 C2D         46.5160     9.0670    29.1340 C.3          1 NAP603   0.0000
    34 O2D         46.3120     7.7770    28.5580 O.3          1 NAP603   0.0000
    35 C1D         45.3600    10.0040    28.8870 C.3          1 NAP603   0.0000
    36 N1N         45.3580    10.6000    27.5530 N.ar         1 NAP603   1.0000
    37 C2N         46.2270    11.5850    27.2380 C.ar         1 NAP603   0.0000
    38 C3N         46.1910    12.1510    25.9670 C.ar         1 NAP603   0.0000
    39 C7N         47.1480    13.2300    25.5650 C.2          1 NAP603   0.0000
    40 O7N         47.3006    13.6224    24.2857 O.2          1 NAP603   0.0000
    41 N7N         47.8716    13.7376    26.5342 N.am         1 NAP603   0.0000
    42 C4N         45.2680    11.6910    25.0310 C.ar         1 NAP603   0.0000
    43 C5N         44.3840    10.6880    25.3870 C.ar         1 NAP603   0.0000
    44 C6N         44.4520    10.1540    26.6710 C.ar         1 NAP603   0.0000
    45 P2B         54.2680    10.9410    38.6440 P.3          1 NAP603   0.0000
    46 O1X         55.2920    10.9950    37.5470 O.co2        1 NAP603   0.0000
    47 O2X         54.5860    11.6840    39.9120 O.co2        1 NAP603  -1.0000
    48 O3X         53.7870     9.5280    38.8850 O.co2        1 NAP603  -1.0000
    49 H5B1        51.6907    11.9695    33.7188 H            1 NAP603   0.0000
    50 H5B2        50.0943    11.8002    33.4198 H            1 NAP603   0.0000
    51 H4B         49.6425    12.5559    35.6480 H            1 NAP603   0.0000
    52 H3B         52.1906    13.3512    35.8311 H            1 NAP603   0.0000
    53 H5          51.6067    13.6719    38.0570 H            1 NAP603   0.0000
    54 H2B         53.1130    11.2301    36.0963 H            1 NAP603   0.0000
    55 H1B         50.7546    10.6360    37.6404 H            1 NAP603   0.0000
    56 H8A         52.7650     8.8098    35.0245 H            1 NAP603   0.0000
    57 H6A1        51.5129     3.7853    38.3078 H            1 NAP603   0.0000
    58 H6A2        52.2979     4.4313    36.9055 H            1 NAP603   0.0000
    59 H2A         49.6073     7.3310    40.3455 H            1 NAP603   0.0000
    60 H5D1        46.6186    12.0109    32.1821 H            1 NAP603   0.0000
    61 H5D2        47.5461    10.6915    32.4379 H            1 NAP603   0.0000
    62 H4D         45.2581    10.2343    31.6991 H            1 NAP603   0.0000
    63 H3D         47.4282     8.8130    30.9905 H            1 NAP603   0.0000
    64 H16         44.6566     8.4063    31.1097 H            1 NAP603   0.0000
    65 H2D         47.3703     9.4682    28.8035 H            1 NAP603   0.0000
    66 H18         47.0437     7.1616    28.8510 H            1 NAP603   0.0000
    67 H1D         44.4993     9.5169    29.0352 H            1 NAP603   0.0000
    68 H2N         46.8915    11.9053    27.9132 H            1 NAP603   0.0000
    69 H7N1        48.5848    14.4075    26.3276 H            1 NAP603   0.0000
    70 H7N2        47.7102    13.4546    27.4796 H            1 NAP603   0.0000
    71 H4N         45.2444    12.0818    24.1108 H            1 NAP603   0.0000
    72 H5N         43.7069    10.3519    24.7324 H            1 NAP603   0.0000
    73 H6N         43.8174     9.4290    26.9387 H            1 NAP603   0.0000
@<TRIPOS>BOND
     1    1    2      ar
     2    1    3      ar
     3    1    4       1
     4    1   23       1
     5    4    5       1
     6    5    6       1
     7    6    7       1
     8    6    8       1
     9    7   12       1
    10    8    9       1
    11    8   10       1
    12   10   11       1
    13   10   12       1
    14   11   45       1
    15   12   13       1
    16   13   14       1
    17   13   22       1
    18   14   15       2
    19   15   16       1
    20   16   17      ar
    21   16   22      ar
    22   17   18       1
    23   17   19      ar
    24   19   20      ar
    25   20   21      ar
    26   21   22      ar
    27   23   24       1
    28   24   25      ar
    29   24   26      ar
    30   24   27       1
    31   27   28       1
    32   28   29       1
    33   29   30       1
    34   29   31       1
    35   30   35       1
    36   31   32       1
    37   31   33       1
    38   33   34       1
    39   33   35       1
    40   35   36       1
    41   36   37      ar
    42   36   44      ar
    43   37   38      ar
    44   38   39       1
    45   38   42      ar
    46   39   40       2
    47   39   41      am
    48   42   43      ar
    49   43   44      ar
    50   45   46      ar
    51   45   47      ar
    52   45   48      ar
    53   43   72       1
    54    5   49       1
    55    5   50       1
    56    6   51       1
    57    8   52       1
    58    9   53       1
    59   10   54       1
    60   12   55       1
    61   14   56       1
    62   18   57       1
    63   18   58       1
    64   20   59       1
    65   44   73       1
    66   28   60       1
    67   28   61       1
    68   29   62       1
    69   31   63       1
    70   32   64       1
    71   33   65       1
    72   34   66       1
    73   35   67       1
    74   37   68       1
    75   41   69       1
    76   41   70       1
    77   42   71       1
@<TRIPOS>SUBSTRUCTURE
     1 NAP603      1 GROUP             4 D     NAP     0 **** NAP D 603
