@<TRIPOS>MOLECULE
2oym_MNI_2_ligand
   46    47     1     0     0
SMALL
NO_CHARGES


@<TRIPOS>ATOM
     1 O1B          4.4160    50.7270    40.1010 O.2          1 MNI600   0.0000
     2 C1B          5.6130    50.9210    39.8950 C.2          1 MNI600   0.0000
     3 C2B          6.6050    50.4840    40.9440 C.ar         1 MNI600   0.0000
     4 C3B          7.9890    50.6660    40.8130 C.ar         1 MNI600   0.0000
     5 C4B          8.8560    50.2440    41.8270 C.ar         1 MNI600   0.0000
     6 C5B          8.3550    49.6320    42.9910 C.ar         1 MNI600   0.0000
     7 N5B          9.1860    49.2080    43.9960 N.pl3        1 MNI600   0.0000
     8 C8B         10.6270    49.3690    43.8880 C.3          1 MNI600   0.0000
     9 C9B          8.6680    48.5670    45.2070 C.3          1 MNI600   0.0000
    10 C6B          6.9720    49.4590    43.1080 C.ar         1 MNI600   0.0000
    11 C7B          6.1090    49.8840    42.1010 C.ar         1 MNI600   0.0000
    12 N1B          6.0010    51.4940    38.7520 N.am         1 MNI600   0.0000
    13 C1A          5.0930    52.0080    37.7290 C.3          1 MNI600   0.0000
    14 C2A          4.9330    51.2500    36.4230 C.3          1 MNI600   0.0000
    15 N5A          6.1960    50.9760    35.7850 N.4          1 MNI600   1.0000
    16 C5M          6.2330    49.6460    35.2090 C.3          1 MNI600   0.0000
    17 C6A          6.8650    49.6630    33.8300 C.3          1 MNI600   0.0000
    18 O6A          8.1120    50.3720    33.9040 O.3          1 MNI600   0.0000
    19 C4A          4.7690    49.2140    35.2800 C.3          1 MNI600   0.0000
    20 O4A          4.6130    47.8010    35.3410 O.3          1 MNI600   0.0000
    21 C3A          4.2360    49.9090    36.5280 C.3          1 MNI600   0.0000
    22 O3A          2.8020    50.0370    36.5600 O.3          1 MNI600   0.0000
    23 H3B          8.3583    51.0995    39.9910 H            1 MNI600   0.0000
    24 H4B          9.8415    50.3786    41.7235 H            1 MNI600   0.0000
    25 H8B1        11.0656    49.0043    44.7094 H            1 MNI600   0.0000
    26 H8B2        10.9585    48.8735    43.0851 H            1 MNI600   0.0000
    27 H8B3        10.8479    50.3399    43.7952 H            1 MNI600   0.0000
    28 H9B1         9.4291    48.3339    45.8124 H            1 MNI600   0.0000
    29 H9B2         8.0481    49.1950    45.6775 H            1 MNI600   0.0000
    30 H9B3         8.1732    47.7345    44.9579 H            1 MNI600   0.0000
    31 H6B          6.5974    49.0238    43.9267 H            1 MNI600   0.0000
    32 H7B          5.1229    49.7575    42.2088 H            1 MNI600   0.0000
    33 H1B          6.9834    51.5771    38.5846 H            1 MNI600   0.0000
    34 H1A1         5.4089    52.9275    37.4950 H            1 MNI600   0.0000
    35 H1A2         4.1859    52.0634    38.1463 H            1 MNI600   0.0000
    36 H2A          4.3973    51.8231    35.8028 H            1 MNI600   0.0000
    37 H5A1         6.9253    51.0545    36.4646 H            1 MNI600   0.0000
    38 H5M          6.7738    49.0517    35.8043 H            1 MNI600   0.0000
    39 H6A1         6.2541    50.1228    33.1855 H            1 MNI600   0.0000
    40 H6A2         7.0286    48.7254    33.5232 H            1 MNI600   0.0000
    41 H6A          8.0830    51.1621    33.2917 H            1 MNI600   0.0000
    42 H4A          4.2846    49.5632    34.4779 H            1 MNI600   0.0000
    43 H21          3.6400    47.5747    35.3858 H            1 MNI600   0.0000
    44 H3A          4.5513    49.4265    37.3452 H            1 MNI600   0.0000
    45 H23          2.4061    49.5461    35.7839 H            1 MNI600   0.0000
    46 H5A2         6.3437    51.6472    35.0586 H            1 MNI600   0.0000
@<TRIPOS>BOND
     1    1    2       2
     2    2    3       1
     3    2   12      am
     4    3    4      ar
     5    3   11      ar
     6    4    5      ar
     7    5    6      ar
     8    6    7       1
     9    6   10      ar
    10    7    8       1
    11    7    9       1
    12   10   11      ar
    13   12   13       1
    14   13   14       1
    15   14   15       1
    16   14   21       1
    17   15   16       1
    18   16   17       1
    19   16   19       1
    20   17   18       1
    21   19   20       1
    22   19   21       1
    23   21   22       1
    24    4   23       1
    25    5   24       1
    26    8   25       1
    27    8   26       1
    28    8   27       1
    29    9   28       1
    30    9   29       1
    31    9   30       1
    32   10   31       1
    33   11   32       1
    34   12   33       1
    35   13   34       1
    36   13   35       1
    37   14   36       1
    38   15   37       1
    39   16   38       1
    40   17   39       1
    41   17   40       1
    42   18   41       1
    43   19   42       1
    44   20   43       1
    45   21   44       1
    46   22   45       1
    47   15   46       1
@<TRIPOS>SUBSTRUCTURE
     1 MNI600      1 GROUP             4 B     MNI     0 **** MNI B 600
