@<TRIPOS>MOLECULE
2pj4_414_1_ligand
   66    68     1     0     0
SMALL
NO_CHARGES


@<TRIPOS>ATOM
     1 C37         16.9760    29.0750    53.7340 C.ar         1 414401   0.0000
     2 C38         17.7730    29.6590    52.7110 C.ar         1 414401   0.0000
     3 C39         17.5700    29.2940    51.3520 C.ar         1 414401   0.0000
     4 C40         16.5720    28.3450    51.0090 C.ar         1 414401   0.0000
     5 C41         15.7790    27.7610    52.0260 C.ar         1 414401   0.0000
     6 C36         15.9780    28.1250    53.3940 C.ar         1 414401   0.0000
     7 C33         15.1820    27.5530    54.3940 C.3          1 414401   0.0000
     8 O32         14.0510    26.7610    53.9850 O.3          1 414401   0.0000
     9 C30         13.3160    26.1490    54.9620 C.2          1 414401   0.0000
    10 O31         13.5840    26.2940    56.1690 O.2          1 414401   0.0000
    11 N29         12.2940    25.4240    54.5090 N.am         1 414401   0.0000
    12 C25         11.3640    24.6830    55.3540 C.3          1 414401   0.0000
    13 C50          9.9250    25.1990    55.1520 C.3          1 414401   0.0000
    14 C51          9.5290    25.2320    53.6380 C.3          1 414401   0.0000
    15 C52          8.1430    25.8960    53.4270 C.3          1 414401   0.0000
    16 C53          8.1130    27.3300    54.0180 C.3          1 414401   0.0000
    17 C54          8.4320    27.2930    55.5290 C.3          1 414401   0.0000
    18 C55          9.8110    26.6400    55.7700 C.3          1 414401   0.0000
    19 P24         11.6220    22.8870    55.0740 P.3          1 414401   0.0000
    20 O34         10.6250    22.1200    55.8550 O.co2        1 414401   0.0000
    21 O35         13.0650    22.7290    55.3710 O.co2        1 414401  -1.0000
    22 O23         11.4380    22.5860    53.4970 O.3          1 414401   0.0000
    23 C1          12.0010    21.3350    53.0080 C.3          1 414401   0.0000
    24 C2          13.4800    21.5180    52.5770 C.2          1 414401   0.0000
    25 O14         14.2250    20.5080    52.6610 O.co2        1 414401   0.0000
    26 O13         13.8430    22.6640    52.2340 O.co2        1 414401  -1.0000
    27 C3          11.1250    20.6930    51.8910 C.ar         1 414401   0.0000
    28 C8          11.6540    19.6620    51.0710 C.ar         1 414401   0.0000
    29 C4           9.7640    21.0790    51.7210 C.ar         1 414401   0.0000
    30 C5           8.9540    20.4370    50.7440 C.ar         1 414401   0.0000
    31 C6           9.4940    19.4080    49.9270 C.ar         1 414401   0.0000
    32 C7          10.8470    19.0180    50.0850 C.ar         1 414401   0.0000
    33 N9          11.3580    18.0210    49.3240 N.pl3        1 414401   1.0000
    34 C10         12.4600    18.1640    48.5580 C.cat        1 414401   0.0000
    35 N12         13.0860    19.3460    48.4420 N.pl3        1 414401   0.0000
    36 N11         12.9160    17.1110    47.8910 N.pl3        1 414401   0.0000
    37 H1          17.1184    29.3329    54.6896 H            1 414401   0.0000
    38 H2          18.4777    30.3278    52.9481 H            1 414401   0.0000
    39 H3          18.1321    29.7072    50.6356 H            1 414401   0.0000
    40 H4          16.4295    28.0898    50.0527 H            1 414401   0.0000
    41 H5          15.0765    27.0909    51.7863 H            1 414401   0.0000
    42 H6          14.8333    28.2997    54.9604 H            1 414401   0.0000
    43 H7          15.7736    26.9647    54.9453 H            1 414401   0.0000
    44 H8          12.1546    25.3851    53.5195 H            1 414401   0.0000
    45 H9          11.6141    24.8720    56.3036 H            1 414401   0.0000
    46 H10          9.2950    24.5913    55.6356 H            1 414401   0.0000
    47 H11          9.4967    24.2950    53.2901 H            1 414401   0.0000
    48 H12         10.2184    25.7515    53.1331 H            1 414401   0.0000
    49 H13          7.4437    25.3421    53.8788 H            1 414401   0.0000
    50 H14          7.9494    25.9428    52.4470 H            1 414401   0.0000
    51 H15          7.2040    27.7240    53.8822 H            1 414401   0.0000
    52 H16          8.7939    27.8939    53.5507 H            1 414401   0.0000
    53 H17          7.7286    26.7623    56.0018 H            1 414401   0.0000
    54 H18          8.4420    28.2267    55.8870 H            1 414401   0.0000
    55 H19         10.5143    27.2197    55.3585 H            1 414401   0.0000
    56 H20          9.9658    26.5770    56.7559 H            1 414401   0.0000
    57 H21         12.0009    20.6971    53.7782 H            1 414401   0.0000
    58 H22         12.6072    19.3823    51.1859 H            1 414401   0.0000
    59 H23          9.3769    21.8040    52.2907 H            1 414401   0.0000
    60 H24          7.9990    20.7115    50.6316 H            1 414401   0.0000
    61 H25          8.9203    18.9597    49.2416 H            1 414401   0.0000
    62 H26         10.8956    17.1344    49.3299 H            1 414401   0.0000
    63 H27         13.9010    19.4260    47.8680 H            1 414401   0.0000
    64 H28         12.7373    20.1464    48.9296 H            1 414401   0.0000
    65 H29         13.7311    17.1967    47.3181 H            1 414401   0.0000
    66 H30         12.4444    16.2320    47.9614 H            1 414401   0.0000
@<TRIPOS>BOND
     1    1    2      ar
     2    1    6      ar
     3    2    3      ar
     4    3    4      ar
     5    4    5      ar
     6    5    6      ar
     7    6    7       1
     8    7    8       1
     9    8    9       1
    10    9   10       2
    11    9   11      am
    12   11   12       1
    13   12   13       1
    14   12   19       1
    15   13   14       1
    16   13   18       1
    17   14   15       1
    18   15   16       1
    19   16   17       1
    20   17   18       1
    21   19   20      ar
    22   19   21      ar
    23   19   22       1
    24   22   23       1
    25   23   24       1
    26   23   27       1
    27   24   25      ar
    28   24   26      ar
    29   27   28      ar
    30   27   29      ar
    31   28   32      ar
    32   29   30      ar
    33   30   31      ar
    34   31   32      ar
    35   32   33       1
    36   33   34      ar
    37   34   35      ar
    38   34   36      ar
    39    1   37       1
    40    2   38       1
    41    3   39       1
    42    4   40       1
    43    5   41       1
    44    7   42       1
    45    7   43       1
    46   11   44       1
    47   12   45       1
    48   13   46       1
    49   14   47       1
    50   14   48       1
    51   15   49       1
    52   15   50       1
    53   16   51       1
    54   16   52       1
    55   17   53       1
    56   17   54       1
    57   18   55       1
    58   18   56       1
    59   36   65       1
    60   23   57       1
    61   35   64       1
    62   28   58       1
    63   29   59       1
    64   30   60       1
    65   31   61       1
    66   33   62       1
    67   35   63       1
    68   36   66       1
@<TRIPOS>SUBSTRUCTURE
     1 414401      1 GROUP             4 A     414     0 **** 414 A 401
