@<TRIPOS>MOLECULE
3haz_NAD_4_ligand
   70    74     1     0     0
SMALL
NO_CHARGES


@<TRIPOS>ATOM
     1 PA         -23.4370    27.1890   -62.4100 P.3          1 NAD2004   0.0000
     2 O1A        -23.8140    27.1950   -60.8130 O.co2        1 NAD2004   0.0000
     3 O2A        -24.5350    27.7840   -63.1910 O.co2        1 NAD2004  -1.0000
     4 O5B        -23.2320    25.5880   -62.8490 O.3          1 NAD2004   0.0000
     5 C5B        -21.9660    25.1140   -63.2970 C.3          1 NAD2004   0.0000
     6 C4B        -21.9170    23.5790   -63.4270 C.3          1 NAD2004   0.0000
     7 O4B        -22.7590    22.8280   -62.4750 O.3          1 NAD2004   0.0000
     8 C3B        -22.3790    22.9520   -64.8070 C.3          1 NAD2004   0.0000
     9 O3B        -21.6040    21.9590   -65.4050 O.3          1 NAD2004   0.0000
    10 C2B        -23.8580    22.7050   -64.5260 C.3          1 NAD2004   0.0000
    11 O2B        -24.6760    22.1090   -65.5080 O.3          1 NAD2004   0.0000
    12 C1B        -23.7530    22.0990   -63.1950 C.3          1 NAD2004   0.0000
    13 N9A        -25.0260    22.1490   -62.4620 N.pl3        1 NAD2004   0.0000
    14 C8A        -25.9980    23.0920   -62.5510 C.2          1 NAD2004   0.0000
    15 N7A        -27.0370    22.7330   -61.6440 N.2          1 NAD2004   0.0000
    16 C5A        -26.6610    21.5360   -60.9960 C.ar         1 NAD2004   0.0000
    17 C6A        -27.2920    20.7560   -60.0360 C.ar         1 NAD2004   0.0000
    18 N6A        -28.5930    21.1510   -59.5190 N.pl3        1 NAD2004   0.0000
    19 N1A        -26.6940    19.6280   -59.5740 N.ar         1 NAD2004   0.0000
    20 C2A        -25.4540    19.2530   -60.0640 C.ar         1 NAD2004   0.0000
    21 N3A        -24.8310    20.0180   -61.0110 N.ar         1 NAD2004   0.0000
    22 C4A        -25.4390    21.1630   -61.4780 C.ar         1 NAD2004   0.0000
    23 O3         -21.9970    28.0170   -62.6550 O.3          1 NAD2004   0.0000
    24 PN         -21.6100    28.5980   -64.1760 P.3          1 NAD2004   0.0000
    25 O1N        -22.9240    29.3890   -64.8160 O.co2        1 NAD2004   0.0000
    26 O2N        -21.2180    27.4820   -65.0430 O.co2        1 NAD2004  -1.0000
    27 O5D        -20.3280    29.6680   -64.0820 O.3          1 NAD2004   0.0000
    28 C5D        -20.3540    30.7530   -63.1630 C.3          1 NAD2004   0.0000
    29 C4D        -19.9610    30.4610   -61.6970 C.3          1 NAD2004   0.0000
    30 O4D        -18.7950    29.5650   -61.4130 O.3          1 NAD2004   0.0000
    31 C3D        -19.7200    31.6980   -60.7330 C.3          1 NAD2004   0.0000
    32 O3D        -20.5430    31.8590   -59.6050 O.3          1 NAD2004   0.0000
    33 C2D        -18.1900    31.6090   -60.5470 C.3          1 NAD2004   0.0000
    34 O2D        -17.5070    32.5120   -59.7010 O.3          1 NAD2004   0.0000
    35 C1D        -18.0250    30.1550   -60.3800 C.3          1 NAD2004   0.0000
    36 N1N        -16.6000    29.8100   -60.5420 N.ar         1 NAD2004   1.0000
    37 C2N        -15.7520    29.7870   -59.4160 C.ar         1 NAD2004   0.0000
    38 C3N        -14.3340    29.4580   -59.5820 C.ar         1 NAD2004   0.0000
    39 C7N        -13.4040    29.4180   -58.3550 C.2          1 NAD2004   0.0000
    40 O7N        -12.3610    28.8750   -58.4440 O.2          1 NAD2004   0.0000
    41 N7N        -13.8760    29.8530   -57.0560 N.am         1 NAD2004   0.0000
    42 C4N        -13.7940    29.1590   -60.9290 C.ar         1 NAD2004   0.0000
    43 C5N        -14.6350    29.1820   -62.0440 C.ar         1 NAD2004   0.0000
    44 C6N        -16.0700    29.5060   -61.8800 C.ar         1 NAD2004   0.0000
    45 H5B1       -21.2668    25.4020   -62.6426 H            1 NAD2004   0.0000
    46 H5B2       -21.7718    25.5171   -64.1913 H            1 NAD2004   0.0000
    47 H4B        -20.9699    23.2971   -63.2738 H            1 NAD2004   0.0000
    48 H3B        -22.3639    23.7145   -65.4538 H            1 NAD2004   0.0000
    49 H5         -20.6893    22.3174   -65.5920 H            1 NAD2004   0.0000
    50 H2B        -24.2510    23.6115   -64.3716 H            1 NAD2004   0.0000
    51 H7         -25.4057    21.5894   -65.0635 H            1 NAD2004   0.0000
    52 H1B        -23.4621    21.1467   -63.2875 H            1 NAD2004   0.0000
    53 H8A        -25.9871    23.8952   -63.1466 H            1 NAD2004   0.0000
    54 H6A1       -29.0478    20.5896   -58.8276 H            1 NAD2004   0.0000
    55 H6A2       -29.0326    21.9840   -59.8549 H            1 NAD2004   0.0000
    56 H2A        -25.0137    18.4217   -59.7248 H            1 NAD2004   0.0000
    57 H5D1       -21.2856    31.1164   -63.1559 H            1 NAD2004   0.0000
    58 H5D2       -19.7264    31.4513   -63.5072 H            1 NAD2004   0.0000
    59 H4D        -20.7505    29.9846   -61.3101 H            1 NAD2004   0.0000
    60 H3D        -19.8747    32.5102   -61.2956 H            1 NAD2004   0.0000
    61 H17        -20.6292    32.8321   -59.3914 H            1 NAD2004   0.0000
    62 H2D        -17.8199    31.7960   -61.4570 H            1 NAD2004   0.0000
    63 H19        -17.9916    33.3866   -59.6865 H            1 NAD2004   0.0000
    64 H1D        -18.3577    29.8639   -59.4830 H            1 NAD2004   0.0000
    65 H2N        -16.1166    29.9943   -58.5082 H            1 NAD2004   0.0000
    66 H7N1       -13.2639    29.8229   -56.2658 H            1 NAD2004   0.0000
    67 H7N2       -14.8139    30.1833   -56.9497 H            1 NAD2004   0.0000
    68 H4N        -12.8246    28.9401   -61.0402 H            1 NAD2004   0.0000
    69 H5N        -14.2681    28.9798   -62.9520 H            1 NAD2004   0.0000
    70 H6N        -16.6763    29.5182   -62.6751 H            1 NAD2004   0.0000
@<TRIPOS>BOND
     1    1    2      ar
     2    1    3      ar
     3    1    4       1
     4    1   23       1
     5    4    5       1
     6    5    6       1
     7    6    7       1
     8    6    8       1
     9    7   12       1
    10    8    9       1
    11    8   10       1
    12   10   11       1
    13   10   12       1
    14   12   13       1
    15   13   14       1
    16   13   22       1
    17   14   15       2
    18   15   16       1
    19   16   17      ar
    20   16   22      ar
    21   17   18       1
    22   17   19      ar
    23   19   20      ar
    24   20   21      ar
    25   21   22      ar
    26   23   24       1
    27   24   25      ar
    28   24   26      ar
    29   24   27       1
    30   27   28       1
    31   28   29       1
    32   29   30       1
    33   29   31       1
    34   30   35       1
    35   31   32       1
    36   31   33       1
    37   33   34       1
    38   33   35       1
    39   35   36       1
    40   36   37      ar
    41   36   44      ar
    42   37   38      ar
    43   38   39       1
    44   38   42      ar
    45   39   40       2
    46   39   41      am
    47   42   43      ar
    48   43   44      ar
    49   44   70       1
    50    5   45       1
    51    5   46       1
    52    6   47       1
    53    8   48       1
    54    9   49       1
    55   10   50       1
    56   11   51       1
    57   12   52       1
    58   14   53       1
    59   18   54       1
    60   18   55       1
    61   20   56       1
    62   43   69       1
    63   28   57       1
    64   28   58       1
    65   29   59       1
    66   31   60       1
    67   32   61       1
    68   33   62       1
    69   34   63       1
    70   35   64       1
    71   37   65       1
    72   41   66       1
    73   41   67       1
    74   42   68       1
@<TRIPOS>SUBSTRUCTURE
     1 NAD2004     1 GROUP             4 B     NAD     0 **** NAD B2004
