@<TRIPOS>MOLECULE
4c2z_646_2_ligand
   57    60     1     0     0
SMALL
NO_CHARGES


@<TRIPOS>ATOM
     1 CAA        -14.3320     0.2270   -23.4510 C.3          1 6461498   0.0000
     2 CAB        -16.4070     0.6100   -18.5780 C.3          1 6461498   0.0000
     3 CAC        -13.7690     1.9980   -18.8810 C.3          1 6461498   0.0000
     4 OAD        -17.7190     0.8710   -23.5340 O.2          1 6461498   0.0000
     5 OAE        -19.4870    -0.4380   -22.5190 O.2          1 6461498   0.0000
     6 CLF        -20.1140    -0.6110   -19.8690 Cl           1 6461498   0.0000
     7 CLG        -17.3670     3.3930   -22.2990 Cl           1 6461498   0.0000
     8 CAH        -19.7780     4.4030   -15.2750 C.ar         1 6461498   0.0000
     9 CAI        -19.7670     3.5890   -16.4160 C.ar         1 6461498   0.0000
    10 CAJ        -19.8390     1.9060   -18.8500 C.ar         1 6461498   0.0000
    11 CAK        -18.6150     3.6230   -19.9030 C.ar         1 6461498   0.0000
    12 CAL        -19.2500     5.4970   -17.7610 C.ar         1 6461498   0.0000
    13 CAM        -19.1920     9.6780   -18.1500 C.3          1 6461498   0.0000
    14 CAN        -18.4300     9.8920   -15.7630 C.3          1 6461498   0.0000
    15 CAO        -18.5720     8.2730   -18.0120 C.3          1 6461498   0.0000
    16 CAP        -19.1150     8.5410   -15.5100 C.3          1 6461498   0.0000
    17 NAQ        -19.5300     5.7280   -15.3930 N.ar         1 6461498   0.0000
    18 NAR        -13.7690     1.0980   -21.1820 N.2          1 6461498   0.0000
    19 NAS        -19.0140    10.5690   -16.9580 N.4          1 6461498   1.0000
    20 NAT        -17.0990    -0.5250   -21.7140 N.pl3        1 6461498   0.0000
    21 CAU        -14.6650     0.4810   -22.0180 C.2          1 6461498   0.0000
    22 CAV        -15.6860     0.6130   -19.8740 C.2          1 6461498   0.0000
    23 CAW        -19.5260     1.0670   -19.9480 C.ar         1 6461498   0.0000
    24 CAX        -18.3360     2.7680   -20.9770 C.ar         1 6461498   0.0000
    25 CAY        -19.5770     4.1440   -17.6900 C.ar         1 6461498   0.0000
    26 CAZ        -19.4140     3.2260   -18.8430 C.ar         1 6461498   0.0000
    27 CBA        -19.2620     6.3030   -16.6100 C.ar         1 6461498   0.0000
    28 CBB        -15.9000     0.1490   -21.2420 C.2          1 6461498   0.0000
    29 CBC        -18.7600     1.4570   -21.0660 C.ar         1 6461498   0.0000
    30 NBD        -18.9940     7.6930   -16.7140 N.pl3        1 6461498   0.0000
    31 NBE        -14.3130     1.0720   -19.8790 N.pl3        1 6461498   0.0000
    32 SBF        -18.3270     0.3930   -22.2890 S.o2         1 6461498   0.0000
    33 HAA1       -15.1029    -0.2280   -23.8968 H            1 6461498   0.0000
    34 HAA2       -14.1476     1.0963   -23.9095 H            1 6461498   0.0000
    35 HAA3       -13.5225    -0.3574   -23.5066 H            1 6461498   0.0000
    36 HAB1       -15.8467     1.0619   -17.8838 H            1 6461498   0.0000
    37 HAB2       -17.2734     1.0993   -18.6774 H            1 6461498   0.0000
    38 HAB3       -16.5870    -0.3332   -18.2989 H            1 6461498   0.0000
    39 HAC1       -14.2457     1.8687   -18.0115 H            1 6461498   0.0000
    40 HAC2       -12.7933     1.8180   -18.7562 H            1 6461498   0.0000
    41 HAC3       -13.8970     2.9389   -19.1946 H            1 6461498   0.0000
    42 HAH        -19.9684     4.0061   -14.3771 H            1 6461498   0.0000
    43 HAI        -19.8960     2.6019   -16.3207 H            1 6461498   0.0000
    44 HAJ        -20.3663     1.5463   -18.0802 H            1 6461498   0.0000
    45 HAK        -18.2270     4.5447   -19.9013 H            1 6461498   0.0000
    46 HAL        -19.0036     5.8995   -18.6427 H            1 6461498   0.0000
    47 HAM1       -20.1727     9.5697   -18.3126 H            1 6461498   0.0000
    48 HAM2       -18.7710    10.1267   -18.9383 H            1 6461498   0.0000
    49 HAN1       -17.4536     9.7404   -15.9170 H            1 6461498   0.0000
    50 HAN2       -18.5541    10.4773   -14.9617 H            1 6461498   0.0000
    51 HAO1       -17.5747     8.3407   -18.0421 H            1 6461498   0.0000
    52 HAO2       -18.8892     7.6902   -18.7601 H            1 6461498   0.0000
    53 HAP1       -20.0820     8.6912   -15.3041 H            1 6461498   0.0000
    54 HAP2       -18.6763     8.0848   -14.7358 H            1 6461498   0.0000
    55 HAS1       -19.9097    10.9340   -16.7040 H            1 6461498   0.0000
    56 HAT        -17.1716    -1.5220   -21.6881 H            1 6461498   0.0000
    57 HAS2       -18.4089    11.3216   -17.2178 H            1 6461498   0.0000
@<TRIPOS>BOND
     1    1   21       1
     2    2   22       1
     3    3   31       1
     4    4   32       2
     5    5   32       2
     6    6   23       1
     7    7   24       1
     8    8    9      ar
     9    8   17      ar
    10    9   25      ar
    11   10   23      ar
    12   10   26      ar
    13   11   24      ar
    14   11   26      ar
    15   12   25      ar
    16   12   27      ar
    17   13   15       1
    18   13   19       1
    19   14   16       1
    20   14   19       1
    21   15   30       1
    22   16   30       1
    23   17   27      ar
    24   18   21       2
    25   18   31       1
    26   20   28       1
    27   20   32       1
    28   21   28       1
    29   22   28       2
    30   22   31       1
    31   23   29      ar
    32   24   29      ar
    33   25   26       1
    34   27   30       1
    35   29   32       1
    36    1   33       1
    37    1   34       1
    38    1   35       1
    39    2   36       1
    40    2   37       1
    41    2   38       1
    42    3   39       1
    43    3   40       1
    44    3   41       1
    45    8   42       1
    46    9   43       1
    47   10   44       1
    48   11   45       1
    49   12   46       1
    50   13   47       1
    51   13   48       1
    52   14   49       1
    53   14   50       1
    54   15   51       1
    55   15   52       1
    56   16   53       1
    57   16   54       1
    58   19   55       1
    59   20   56       1
    60   19   57       1
@<TRIPOS>SUBSTRUCTURE
     1 6461498     1 GROUP             4 A     646     0 **** 646 A1498
