@<TRIPOS>MOLECULE
3s6g_COA_1_ligand
   80    82     1     0     0
SMALL
NO_CHARGES


@<TRIPOS>ATOM
     1 N1A         93.5160    34.0110    64.2700 N.ar         1 COA441   0.0000
     2 C2A         92.6250    34.1610    65.3560 C.ar         1 COA441   0.0000
     3 N3A         92.9510    35.0980    66.4360 N.ar         1 COA441   0.0000
     4 C4A         94.1380    35.8340    66.3830 C.ar         1 COA441   0.0000
     5 C5A         95.0550    35.6850    65.2730 C.ar         1 COA441   0.0000
     6 C6A         94.7420    34.7720    64.2180 C.ar         1 COA441   0.0000
     7 N6A         95.6780    34.6220    63.1040 N.pl3        1 COA441   0.0000
     8 N7A         96.2160    36.5890    65.4920 N.2          1 COA441   0.0000
     9 C8A         96.0090    37.2620    66.7030 C.2          1 COA441   0.0000
    10 N9A         94.6990    36.7910    67.2630 N.pl3        1 COA441   0.0000
    11 C1B         94.1020    37.2230    68.5240 C.3          1 COA441   0.0000
    12 C2B         93.9560    36.1580    69.6850 C.3          1 COA441   0.0000
    13 O2B         92.8030    35.3950    69.7670 O.3          1 COA441   0.0000
    14 C3B         94.5890    36.8510    70.9220 C.3          1 COA441   0.0000
    15 O3B         93.9410    36.9520    72.1510 O.3          1 COA441   0.0000
    16 P3B         93.4300    35.7280    73.0030 P.3          1 COA441   0.0000
    17 O7A         92.3870    36.2580    74.0320 O.co2        1 COA441   0.0000
    18 O8A         92.7660    34.6100    72.1280 O.co2        1 COA441  -1.0000
    19 O9A         94.5730    35.1470    73.7720 O.co2        1 COA441  -1.0000
    20 C4B         95.1640    38.1740    70.3320 C.3          1 COA441   0.0000
    21 O4B         94.2660    38.5030    69.2130 O.3          1 COA441   0.0000
    22 C5B         96.6870    38.3790    70.1890 C.3          1 COA441   0.0000
    23 O5B         97.1460    39.6800    70.0270 O.3          1 COA441   0.0000
    24 P1A         97.2930    40.6750    71.2700 P.3          1 COA441   0.0000
    25 O1A         96.4210    40.1320    72.4700 O.co2        1 COA441   0.0000
    26 O2A         96.7870    42.0490    70.8530 O.co2        1 COA441  -1.0000
    27 O3A         98.8020    40.7880    71.7310 O.3          1 COA441   0.0000
    28 P2A         99.3280    41.9280    72.6910 P.3          1 COA441   0.0000
    29 O4A        100.8780    41.9620    72.6510 O.co2        1 COA441   0.0000
    30 O5A         98.8190    43.2450    72.2140 O.co2        1 COA441  -1.0000
    31 O6A         98.8430    41.6770    74.2090 O.3          1 COA441   0.0000
    32 CBP         97.8330    43.5340    75.6280 C.3          1 COA441   0.0000
    33 CCP         99.0250    42.6500    75.2130 C.3          1 COA441   0.0000
    34 CDP         96.9480    42.7360    76.5620 C.3          1 COA441   0.0000
    35 CEP         96.9910    43.9040    74.4060 C.3          1 COA441   0.0000
    36 CAP         98.2480    44.8720    76.3410 C.3          1 COA441   0.0000
    37 OAP         97.1180    45.4980    76.8860 O.3          1 COA441   0.0000
    38 C9P         99.4740    44.9430    77.2460 C.2          1 COA441   0.0000
    39 O9P         99.3690    45.1440    78.4660 O.2          1 COA441   0.0000
    40 N8P        100.7850    45.1910    76.5800 N.am         1 COA441   0.0000
    41 C7P        101.6300    46.3050    76.9120 C.3          1 COA441   0.0000
    42 C6P        102.5620    46.7940    75.8330 C.3          1 COA441   0.0000
    43 C5P        104.0040    46.7010    76.2800 C.2          1 COA441   0.0000
    44 O5P        104.8890    46.7830    75.4580 O.2          1 COA441   0.0000
    45 N4P        104.3100    46.3360    77.6710 N.am         1 COA441   0.0000
    46 C3P        105.6780    46.2850    78.2070 C.3          1 COA441   0.0000
    47 C2P        105.9700    47.0780    79.4480 C.3          1 COA441   0.0000
    48 S1P        105.6320    48.7930    79.4270 S.3          1 COA441   0.0000
    49 H2A         91.7773    33.6315    65.3881 H            1 COA441   0.0000
    50 H6A1        96.5224    35.1574    63.0848 H            1 COA441   0.0000
    51 H6A2        95.4735    33.9840    62.3616 H            1 COA441   0.0000
    52 H8A         96.6223    37.9337    67.1185 H            1 COA441   0.0000
    53 H1B         93.1456    37.3015    68.2425 H            1 COA441   0.0000
    54 H2B         94.6476    35.4779    69.4417 H            1 COA441   0.0000
    55 H7          92.6250    35.1616    70.7230 H            1 COA441   0.0000
    56 H3B         95.4002    36.3007    71.1198 H            1 COA441   0.0000
    57 H4B         94.9135    38.8518    71.0233 H            1 COA441   0.0000
    58 H5B1        96.9865    37.8542    69.3922 H            1 COA441   0.0000
    59 H5B2        97.1177    38.0097    71.0125 H            1 COA441   0.0000
    60 HCP1        99.7482    43.2642    74.8970 H            1 COA441   0.0000
    61 HCP2        99.3316    42.1687    76.0342 H            1 COA441   0.0000
    62 HDP1        96.1680    43.2958    76.8416 H            1 COA441   0.0000
    63 HDP2        96.6190    41.9174    76.0912 H            1 COA441   0.0000
    64 HDP3        97.4724    42.4677    77.3701 H            1 COA441   0.0000
    65 HEP1        96.2227    44.4768    74.6916 H            1 COA441   0.0000
    66 HEP2        97.5561    44.4064    73.7515 H            1 COA441   0.0000
    67 HEP3        96.6437    43.0707    73.9758 H            1 COA441   0.0000
    68 HAP         98.4935    45.4698    75.5779 H            1 COA441   0.0000
    69 H21         97.2552    46.4885    76.8903 H            1 COA441   0.0000
    70 H8P        101.0894    44.5544    75.8715 H            1 COA441   0.0000
    71 H7P1       102.1891    46.0377    77.6969 H            1 COA441   0.0000
    72 H7P2       101.0375    47.0684    77.1693 H            1 COA441   0.0000
    73 H6P1       102.3459    47.7472    75.6214 H            1 COA441   0.0000
    74 H6P2       102.4366    46.2341    75.0140 H            1 COA441   0.0000
    75 H4P        103.5509    46.1116    78.2820 H            1 COA441   0.0000
    76 H3P1       106.2924    46.6147    77.4902 H            1 COA441   0.0000
    77 H3P2       105.8845    45.3276    78.4086 H            1 COA441   0.0000
    78 H2P1       106.9439    46.9696    79.6475 H            1 COA441   0.0000
    79 H2P2       105.4313    46.6782    80.1896 H            1 COA441   0.0000
    80 H1P        105.8726    49.1910    80.3123 H            1 COA441   0.0000
@<TRIPOS>BOND
     1    1    2      ar
     2    1    6      ar
     3    2    3      ar
     4    3    4      ar
     5    4    5      ar
     6    4   10       1
     7    5    6      ar
     8    5    8       1
     9    6    7       1
    10    8    9       2
    11    9   10       1
    12   10   11       1
    13   11   12       1
    14   11   21       1
    15   12   13       1
    16   12   14       1
    17   14   15       1
    18   14   20       1
    19   15   16       1
    20   16   17      ar
    21   16   18      ar
    22   16   19      ar
    23   20   21       1
    24   20   22       1
    25   22   23       1
    26   23   24       1
    27   24   25      ar
    28   24   26      ar
    29   24   27       1
    30   27   28       1
    31   28   29      ar
    32   28   30      ar
    33   28   31       1
    34   31   33       1
    35   32   33       1
    36   32   34       1
    37   32   35       1
    38   32   36       1
    39   36   37       1
    40   36   38       1
    41   38   39       2
    42   38   40      am
    43   40   41       1
    44   41   42       1
    45   42   43       1
    46   43   44       2
    47   43   45      am
    48   45   46       1
    49   46   47       1
    50   47   48       1
    51    2   49       1
    52    7   50       1
    53    7   51       1
    54    9   52       1
    55   11   53       1
    56   12   54       1
    57   13   55       1
    58   14   56       1
    59   48   80       1
    60   47   79       1
    61   20   57       1
    62   22   58       1
    63   22   59       1
    64   47   78       1
    65   46   77       1
    66   33   60       1
    67   33   61       1
    68   34   62       1
    69   34   63       1
    70   34   64       1
    71   35   65       1
    72   35   66       1
    73   35   67       1
    74   36   68       1
    75   37   69       1
    76   40   70       1
    77   41   71       1
    78   41   72       1
    79   42   73       1
    80   42   74       1
    81   45   75       1
    82   46   76       1
@<TRIPOS>SUBSTRUCTURE
     1 COA441      1 GROUP             4 Y     COA     0 **** COA Y 441
