@<TRIPOS>MOLECULE
5kf8_ACO_1_ligand
   85    87     1     0     0
SMALL
NO_CHARGES


@<TRIPOS>ATOM
     1 N1A        -15.4550    19.0580     5.8850 N.ar         1 ACO401   0.0000
     2 C2A        -15.6420    20.3220     6.2250 C.ar         1 ACO401   0.0000
     3 N3A        -16.0260    20.7090     7.4300 N.ar         1 ACO401   0.0000
     4 C4A        -16.2590    19.7980     8.3830 C.ar         1 ACO401   0.0000
     5 C5A        -16.0570    18.3810     8.0810 C.ar         1 ACO401   0.0000
     6 C6A        -15.6710    18.0280     6.7030 C.ar         1 ACO401   0.0000
     7 N6A        -15.4770    16.7520     6.3820 N.pl3        1 ACO401   0.0000
     8 N7A        -16.3520    17.7240     9.1800 N.2          1 ACO401   0.0000
     9 C8A        -16.6900    18.6030    10.1030 C.2          1 ACO401   0.0000
    10 N9A        -16.6150    19.8380     9.6510 N.pl3        1 ACO401   0.0000
    11 C1B        -16.9520    21.0900    10.3760 C.3          1 ACO401   0.0000
    12 C2B        -18.3460    21.5340     9.9180 C.3          1 ACO401   0.0000
    13 O2B        -18.5100    22.9000    10.0940 O.3          1 ACO401   0.0000
    14 C3B        -19.2560    20.8990    10.9170 C.3          1 ACO401   0.0000
    15 O3B        -20.5410    21.4540    11.0110 O.3          1 ACO401   0.0000
    16 P3B        -21.6900    21.0340    10.0210 P.3          1 ACO401   0.0000
    17 O7A        -22.1800    19.7210    10.2000 O.co2        1 ACO401   0.0000
    18 O8A        -22.6760    22.0850    10.2860 O.co2        1 ACO401  -1.0000
    19 O9A        -21.2210    21.1480     8.7000 O.co2        1 ACO401  -1.0000
    20 C4B        -18.4020    21.0540    12.1660 C.3          1 ACO401   0.0000
    21 O4B        -17.0740    20.9290    11.7470 O.3          1 ACO401   0.0000
    22 C5B        -18.8200    20.0720    13.2420 C.3          1 ACO401   0.0000
    23 O5B        -18.7390    18.7570    12.8440 O.3          1 ACO401   0.0000
    24 P1A        -19.0620    17.5980    13.7980 P.3          1 ACO401   0.0000
    25 O1A        -20.3000    17.0600    13.4120 O.co2        1 ACO401   0.0000
    26 O2A        -18.8890    17.9550    15.0970 O.co2        1 ACO401  -1.0000
    27 O3A        -17.9460    16.5450    13.4080 O.3          1 ACO401   0.0000
    28 P2A        -17.9690    15.0070    13.3540 P.3          1 ACO401   0.0000
    29 O4A        -18.6490    14.4840    14.4420 O.co2        1 ACO401   0.0000
    30 O5A        -18.4950    14.6890    12.1350 O.co2        1 ACO401  -1.0000
    31 O6A        -16.4460    14.6520    13.3850 O.3          1 ACO401   0.0000
    32 CBP        -14.2690    14.2840    12.4520 C.3          1 ACO401   0.0000
    33 CCP        -15.4190    15.2840    12.6780 C.3          1 ACO401   0.0000
    34 CDP        -13.8460    13.7910    13.8100 C.3          1 ACO401   0.0000
    35 CEP        -13.1420    14.9990    11.7810 C.3          1 ACO401   0.0000
    36 CAP        -14.7550    13.0820    11.6200 C.3          1 ACO401   0.0000
    37 OAP        -15.0200    13.5670    10.3520 O.3          1 ACO401   0.0000
    38 C9P        -13.7720    11.9260    11.5110 C.2          1 ACO401   0.0000
    39 O9P        -13.7110    11.1030    12.3360 O.2          1 ACO401   0.0000
    40 N8P        -13.0710    11.9390    10.4110 N.am         1 ACO401   0.0000
    41 C7P        -12.0590    10.9800    10.0800 C.3          1 ACO401   0.0000
    42 C6P        -10.9540    10.8900    11.0850 C.3          1 ACO401   0.0000
    43 C5P        -10.1540    12.1790    11.0700 C.2          1 ACO401   0.0000
    44 O5P         -9.9170    12.7590    10.0960 O.2          1 ACO401   0.0000
    45 N4P         -9.7590    12.6000    12.2500 N.am         1 ACO401   0.0000
    46 C3P         -8.7870    13.6320    12.5230 C.3          1 ACO401   0.0000
    47 C2P         -7.3300    13.2510    12.2640 C.3          1 ACO401   0.0000
    48 S1P         -6.0450    14.3440    12.8020 S.3          1 ACO401   0.0000
    49 C           -5.9370    14.1000    14.4620 C.2          1 ACO401   0.0000
    50 O           -6.5970    13.3000    14.9930 O.2          1 ACO401   0.0000
    51 CH3         -4.9500    14.8720    15.2810 C.3          1 ACO401   0.0000
    52 H2A        -15.4841    21.0252     5.5318 H            1 ACO401   0.0000
    53 H6A1       -15.6624    16.0339     7.0528 H            1 ACO401   0.0000
    54 H6A2       -15.1458    16.5107     5.4698 H            1 ACO401   0.0000
    55 H8A        -16.9691    18.3616    11.0324 H            1 ACO401   0.0000
    56 H1B        -16.2786    21.8000    10.1703 H            1 ACO401   0.0000
    57 H2B        -18.5483    21.2447     8.9824 H            1 ACO401   0.0000
    58 H7         -19.4738    23.1000    10.2703 H            1 ACO401   0.0000
    59 H3B        -19.3403    19.9258    10.7031 H            1 ACO401   0.0000
    60 H4B        -18.5320    21.9800    12.5205 H            1 ACO401   0.0000
    61 H5B1       -19.7664    20.2675    13.4991 H            1 ACO401   0.0000
    62 H5B2       -18.2257    20.1999    14.0360 H            1 ACO401   0.0000
    63 HCP1       -15.0836    16.0661    13.2032 H            1 ACO401   0.0000
    64 HCP2       -15.7661    15.5996    11.7949 H            1 ACO401   0.0000
    65 HDP1       -13.0973    13.1360    13.7085 H            1 ACO401   0.0000
    66 HDP2       -13.5393    14.5644    14.3648 H            1 ACO401   0.0000
    67 HDP3       -14.6204    13.3451    14.2589 H            1 ACO401   0.0000
    68 HEP1       -12.3870    14.3615    11.6276 H            1 ACO401   0.0000
    69 HEP2       -13.4539    15.3636    10.9036 H            1 ACO401   0.0000
    70 HEP3       -12.8307    15.7506    12.3626 H            1 ACO401   0.0000
    71 HAP        -15.6072    12.7413    12.0171 H            1 ACO401   0.0000
    72 H21        -15.7253    14.2739    10.4061 H            1 ACO401   0.0000
    73 H8P        -13.2526    12.6694     9.7526 H            1 ACO401   0.0000
    74 H7P1       -11.6620    11.2335     9.1979 H            1 ACO401   0.0000
    75 H7P2       -12.4902    10.0808    10.0053 H            1 ACO401   0.0000
    76 H6P1       -10.3552    10.1229    10.8549 H            1 ACO401   0.0000
    77 H6P2       -11.3419    10.7485    11.9958 H            1 ACO401   0.0000
    78 H4P        -10.1763    12.1584    13.0443 H            1 ACO401   0.0000
    79 H3P1        -8.8718    13.8876    13.4861 H            1 ACO401   0.0000
    80 H3P2        -9.0057    14.4206    11.9483 H            1 ACO401   0.0000
    81 H2P1        -7.2272    13.1430    11.2752 H            1 ACO401   0.0000
    82 H2P2        -7.1733    12.3716    12.7135 H            1 ACO401   0.0000
    83 HH31        -5.0262    14.5986    16.2399 H            1 ACO401   0.0000
    84 HH32        -4.0244    14.6829    14.9530 H            1 ACO401   0.0000
    85 HH33        -5.1400    15.8502    15.1972 H            1 ACO401   0.0000
@<TRIPOS>BOND
     1    1    2      ar
     2    1    6      ar
     3    2    3      ar
     4    3    4      ar
     5    4    5      ar
     6    4   10       1
     7    5    6      ar
     8    5    8       1
     9    6    7       1
    10    8    9       2
    11    9   10       1
    12   10   11       1
    13   11   12       1
    14   11   21       1
    15   12   13       1
    16   12   14       1
    17   14   15       1
    18   14   20       1
    19   15   16       1
    20   16   17      ar
    21   16   18      ar
    22   16   19      ar
    23   20   21       1
    24   20   22       1
    25   22   23       1
    26   23   24       1
    27   24   25      ar
    28   24   26      ar
    29   24   27       1
    30   27   28       1
    31   28   29      ar
    32   28   30      ar
    33   28   31       1
    34   31   33       1
    35   32   33       1
    36   32   34       1
    37   32   35       1
    38   32   36       1
    39   36   37       1
    40   36   38       1
    41   38   39       2
    42   38   40      am
    43   40   41       1
    44   41   42       1
    45   42   43       1
    46   43   44       2
    47   43   45      am
    48   45   46       1
    49   46   47       1
    50   47   48       1
    51   48   49       1
    52   49   50       2
    53   49   51       1
    54    2   52       1
    55    7   53       1
    56    7   54       1
    57    9   55       1
    58   11   56       1
    59   12   57       1
    60   13   58       1
    61   14   59       1
    62   51   85       1
    63   51   84       1
    64   20   60       1
    65   22   61       1
    66   22   62       1
    67   51   83       1
    68   47   82       1
    69   33   63       1
    70   33   64       1
    71   34   65       1
    72   34   66       1
    73   34   67       1
    74   35   68       1
    75   35   69       1
    76   35   70       1
    77   36   71       1
    78   37   72       1
    79   40   73       1
    80   41   74       1
    81   41   75       1
    82   42   76       1
    83   42   77       1
    84   45   78       1
    85   46   79       1
    86   46   80       1
    87   47   81       1
@<TRIPOS>SUBSTRUCTURE
     1 ACO401      1 GROUP             4 A     ACO     0 **** ACO A 401
