@<TRIPOS>MOLECULE
3eof_FMN_2_ligand
   50    52     1     0     0
SMALL
NO_CHARGES


@<TRIPOS>ATOM
     1 N1          11.3290     4.7190    25.6130 N.pl3        1 FMN300  -1.0000
     2 C2          10.9280     4.1320    26.8160 C.2          1 FMN300   0.0000
     3 O2           9.7460     4.1500    27.2040 O.2          1 FMN300   0.0000
     4 N3          11.8710     3.5490    27.6480 N.pl3        1 FMN300   0.0000
     5 C4          13.2230     3.4880    27.3080 C.2          1 FMN300   0.0000
     6 O4          13.8730     2.5770    27.8610 O.2          1 FMN300   0.0000
     7 C4A         13.6470     4.0780    26.0870 C.2          1 FMN300   0.0000
     8 N5          14.9960     4.0610    25.6880 N.pl3        1 FMN300  -1.0000
     9 C5A         15.4010     4.6120    24.4610 C.2          1 FMN300   0.0000
    10 C6          16.7520     4.5780    24.0840 C.2          1 FMN300   0.0000
    11 C7          17.1980     5.1010    22.8650 C.3          1 FMN300   0.0000
    12 C7M         18.3600     4.3940    22.1960 C.3          1 FMN300   0.0000
    13 C8          16.2480     5.7100    22.0340 C.2          1 FMN300   0.0000
    14 C8M         16.6080     5.9330    20.6070 C.2          1 FMN300   0.0000
    15 C9          14.9030     5.7700    22.3970 C.2          1 FMN300   0.0000
    16 C9A         14.4420     5.2200    23.6150 C.2          1 FMN300   0.0000
    17 N10         13.0810     5.2390    24.0120 N.pl3        1 FMN300   0.0000
    18 C10         12.6830     4.6920    25.2380 C.2          1 FMN300   0.0000
    19 C1'         12.0350     5.9440    23.2060 C.3          1 FMN300   0.0000
    20 C2'         12.1900     7.4460    23.4140 C.3          1 FMN300   0.0000
    21 O2'         11.9090     7.7940    24.7600 O.3          1 FMN300   0.0000
    22 C3'         11.2910     8.1600    22.3950 C.3          1 FMN300   0.0000
    23 O3'         11.8100     7.9380    21.0970 O.3          1 FMN300   0.0000
    24 C4'         11.1380     9.6580    22.6540 C.3          1 FMN300   0.0000
    25 O4'         10.2010     9.8750    23.6970 O.3          1 FMN300   0.0000
    26 C5'         10.6070    10.3800    21.4350 C.3          1 FMN300   0.0000
    27 O5'          9.3600     9.7930    21.1590 O.3          1 FMN300   0.0000
    28 P            8.8900     9.2780    19.6870 P.3          1 FMN300   0.0000
    29 O1P          9.0130    10.4160    18.7060 O.co2        1 FMN300   0.0000
    30 O2P          7.4260     8.8990    19.7840 O.co2        1 FMN300  -1.0000
    31 O3P          9.7700     8.0950    19.3030 O.co2        1 FMN300  -1.0000
    32 H1          11.5730     3.1597    28.5196 H            1 FMN300   0.0000
    33 H2          17.4178     4.1667    24.7065 H            1 FMN300   0.0000
    34 H3          17.6714     5.9161    23.1989 H            1 FMN300   0.0000
    35 H7M1        18.5841     4.8584    21.3392 H            1 FMN300   0.0000
    36 H7M2        19.1548     4.4117    22.8026 H            1 FMN300   0.0000
    37 H7M3        18.1076     3.4454    22.0049 H            1 FMN300   0.0000
    38 H8M1        15.9526     6.3652    19.9876 H            1 FMN300   0.0000
    39 H8M2        17.5053     5.6506    20.2677 H            1 FMN300   0.0000
    40 H9          14.2499     6.2120    21.7820 H            1 FMN300   0.0000
    41 H1'1        11.1263     5.6544    23.5066 H            1 FMN300   0.0000
    42 H1'2        12.1514     5.7244    22.2374 H            1 FMN300   0.0000
    43 H2'         13.1395     7.6920    23.2194 H            1 FMN300   0.0000
    44 H13         11.1429     8.4363    24.7853 H            1 FMN300   0.0000
    45 H3'         10.3826     7.7443    22.4398 H            1 FMN300   0.0000
    46 H15         11.0617     7.9417    20.4337 H            1 FMN300   0.0000
    47 H4'         12.0229    10.0450    22.9132 H            1 FMN300   0.0000
    48 H17         10.1061    10.8569    23.8609 H            1 FMN300   0.0000
    49 H5'1        11.2281    10.2599    20.6605 H            1 FMN300   0.0000
    50 H5'2        10.4985    11.3554    21.6271 H            1 FMN300   0.0000
@<TRIPOS>BOND
     1    1    2       1
     2    1   18       1
     3    2    3       2
     4    2    4       1
     5    4    5       1
     6    5    6       2
     7    5    7       1
     8    7    8       1
     9    7   18       2
    10    8    9       1
    11    9   10       2
    12    9   16       1
    13   10   11       1
    14   11   12       1
    15   11   13       1
    16   13   14       2
    17   13   15       1
    18   15   16       2
    19   16   17       1
    20   17   18       1
    21   17   19       1
    22   19   20       1
    23   20   21       1
    24   20   22       1
    25   22   23       1
    26   22   24       1
    27   24   25       1
    28   24   26       1
    29   26   27       1
    30   27   28       1
    31   28   29      ar
    32   28   30      ar
    33   28   31      ar
    34   26   50       1
    35    4   32       1
    36   26   49       1
    37   10   33       1
    38   11   34       1
    39   12   35       1
    40   12   36       1
    41   12   37       1
    42   14   38       1
    43   14   39       1
    44   15   40       1
    45   19   41       1
    46   19   42       1
    47   20   43       1
    48   21   44       1
    49   22   45       1
    50   23   46       1
    51   24   47       1
    52   25   48       1
@<TRIPOS>SUBSTRUCTURE
     1 FMN300      1 GROUP             4 B     FMN     0 **** FMN B 300
