@<TRIPOS>MOLECULE
3n7u_NAD_12_ligand
   70    74     1     0     0
SMALL
NO_CHARGES


@<TRIPOS>ATOM
     1 PA           2.5090    89.9530   118.1340 P.3          1 NAD401   0.0000
     2 O1A          2.6490    91.3390   118.6610 O.co2        1 NAD401   0.0000
     3 O2A          1.7770    89.8580   116.8460 O.co2        1 NAD401  -1.0000
     4 O5B          1.6200    89.1660   119.2360 O.3          1 NAD401   0.0000
     5 C5B          1.8500    89.2740   120.6300 C.3          1 NAD401   0.0000
     6 C4B          0.4950    89.1290   121.3650 C.3          1 NAD401   0.0000
     7 O4B          0.6820    89.1700   122.8010 O.3          1 NAD401   0.0000
     8 C3B         -0.5240    90.2380   121.0430 C.3          1 NAD401   0.0000
     9 O3B         -1.6670    89.5930   120.4790 O.3          1 NAD401   0.0000
    10 C2B         -0.8680    90.8860   122.4030 C.3          1 NAD401   0.0000
    11 O2B         -2.2420    91.2880   122.5080 O.3          1 NAD401   0.0000
    12 C1B         -0.4970    89.7610   123.3890 C.3          1 NAD401   0.0000
    13 N9A         -0.1650    90.2370   124.7330 N.pl3        1 NAD401   0.0000
    14 C8A          0.7390    91.1940   125.1020 C.2          1 NAD401   0.0000
    15 N7A          0.7440    91.3160   126.4040 N.2          1 NAD401   0.0000
    16 C5A         -0.1680    90.4650   126.9340 C.ar         1 NAD401   0.0000
    17 C6A         -0.6040    90.1570   128.2370 C.ar         1 NAD401   0.0000
    18 N6A         -0.0600    90.7880   129.3530 N.pl3        1 NAD401   0.0000
    19 N1A         -1.5490    89.2060   128.3640 N.ar         1 NAD401   0.0000
    20 C2A         -2.0640    88.5740   127.3140 C.ar         1 NAD401   0.0000
    21 N3A         -1.6960    88.8510   126.0630 N.ar         1 NAD401   0.0000
    22 C4A         -0.7470    89.7680   125.8610 C.ar         1 NAD401   0.0000
    23 O3           3.9750    89.2600   118.1320 O.3          1 NAD401   0.0000
    24 PN           4.4010    87.8860   117.3860 P.3          1 NAD401   0.0000
    25 O1N          4.9520    88.1700   115.9680 O.co2        1 NAD401   0.0000
    26 O2N          3.2880    86.8470   117.5520 O.co2        1 NAD401  -1.0000
    27 O5D          5.6710    87.4840   118.2470 O.3          1 NAD401   0.0000
    28 C5D          5.4860    87.4260   119.6730 C.3          1 NAD401   0.0000
    29 C4D          6.8340    87.3150   120.3930 C.3          1 NAD401   0.0000
    30 O4D          7.5490    86.1350   120.0110 O.3          1 NAD401   0.0000
    31 C3D          7.7870    88.4570   120.0010 C.3          1 NAD401   0.0000
    32 O3D          7.4930    89.6110   120.7850 O.3          1 NAD401   0.0000
    33 C2D          9.1640    87.8410   120.3000 C.3          1 NAD401   0.0000
    34 O2D          9.5290    88.0870   121.6650 O.3          1 NAD401   0.0000
    35 C1D          8.9990    86.3030   120.0900 C.3          1 NAD401   0.0000
    36 N1N          9.7200    85.8300   118.8490 N.ar         1 NAD401   1.0000
    37 C2N         10.6560    84.8980   118.9260 C.ar         1 NAD401   0.0000
    38 C3N         11.3440    84.4420   117.7780 C.ar         1 NAD401   0.0000
    39 C7N         12.3620    83.3770   117.8790 C.2          1 NAD401   0.0000
    40 O7N         13.2360    83.2750   117.0290 O.2          1 NAD401   0.0000
    41 N7N         12.3220    82.4760   118.9020 N.am         1 NAD401   0.0000
    42 C4N         11.0370    85.0040   116.5080 C.ar         1 NAD401   0.0000
    43 C5N         10.0630    86.0030   116.4540 C.ar         1 NAD401   0.0000
    44 C6N          9.4110    86.3770   117.6430 C.ar         1 NAD401   0.0000
    45 H5B1         2.2523    90.1657   120.8373 H            1 NAD401   0.0000
    46 H5B2         2.4733    88.5502   120.9260 H            1 NAD401   0.0000
    47 H4B          0.0931    88.2464   121.1211 H            1 NAD401   0.0000
    48 H3B         -0.1391    90.9096   120.4099 H            1 NAD401   0.0000
    49 H5          -2.0438    88.9444   121.1403 H            1 NAD401   0.0000
    50 H2B         -0.2748    91.6761   122.5574 H            1 NAD401   0.0000
    51 H7          -2.7825    90.5335   122.8803 H            1 NAD401   0.0000
    52 H1B         -1.2339    89.0865   123.4349 H            1 NAD401   0.0000
    53 H8A          1.3097    91.7207   124.4720 H            1 NAD401   0.0000
    54 H6A1        -0.3857    90.5527   130.2687 H            1 NAD401   0.0000
    55 H6A2         0.6563    91.4763   129.2386 H            1 NAD401   0.0000
    56 H2A         -2.7523    87.8652   127.4681 H            1 NAD401   0.0000
    57 H5D1         4.9271    86.6281   119.8988 H            1 NAD401   0.0000
    58 H5D2         5.0194    88.2566   119.9770 H            1 NAD401   0.0000
    59 H4D          6.6905    87.3184   121.3826 H            1 NAD401   0.0000
    60 H3D          7.7012    88.6651   119.0267 H            1 NAD401   0.0000
    61 H17          6.5211    89.6154   121.0203 H            1 NAD401   0.0000
    62 H2D          9.8562    88.2086   119.6790 H            1 NAD401   0.0000
    63 H19         10.4250    87.6827   121.8485 H            1 NAD401   0.0000
    64 H1D          9.3506    85.8153   120.8891 H            1 NAD401   0.0000
    65 H2N         10.8824    84.5065   119.8179 H            1 NAD401   0.0000
    66 H7N1        13.0152    81.7578   118.9631 H            1 NAD401   0.0000
    67 H7N2        11.5995    82.5335   119.5910 H            1 NAD401   0.0000
    68 H4N         11.5039    84.6935   115.6800 H            1 NAD401   0.0000
    69 H5N          9.8333    86.4442   115.5865 H            1 NAD401   0.0000
    70 H6N          8.6929    87.0716   117.5997 H            1 NAD401   0.0000
@<TRIPOS>BOND
     1    1    2      ar
     2    1    3      ar
     3    1    4       1
     4    1   23       1
     5    4    5       1
     6    5    6       1
     7    6    7       1
     8    6    8       1
     9    7   12       1
    10    8    9       1
    11    8   10       1
    12   10   11       1
    13   10   12       1
    14   12   13       1
    15   13   14       1
    16   13   22       1
    17   14   15       2
    18   15   16       1
    19   16   17      ar
    20   16   22      ar
    21   17   18       1
    22   17   19      ar
    23   19   20      ar
    24   20   21      ar
    25   21   22      ar
    26   23   24       1
    27   24   25      ar
    28   24   26      ar
    29   24   27       1
    30   27   28       1
    31   28   29       1
    32   29   30       1
    33   29   31       1
    34   30   35       1
    35   31   32       1
    36   31   33       1
    37   33   34       1
    38   33   35       1
    39   35   36       1
    40   36   37      ar
    41   36   44      ar
    42   37   38      ar
    43   38   39       1
    44   38   42      ar
    45   39   40       2
    46   39   41      am
    47   42   43      ar
    48   43   44      ar
    49   44   70       1
    50    5   45       1
    51    5   46       1
    52    6   47       1
    53    8   48       1
    54    9   49       1
    55   10   50       1
    56   11   51       1
    57   12   52       1
    58   14   53       1
    59   18   54       1
    60   18   55       1
    61   20   56       1
    62   43   69       1
    63   28   57       1
    64   28   58       1
    65   29   59       1
    66   31   60       1
    67   32   61       1
    68   33   62       1
    69   34   63       1
    70   35   64       1
    71   37   65       1
    72   41   66       1
    73   41   67       1
    74   42   68       1
@<TRIPOS>SUBSTRUCTURE
     1 NAD401      1 GROUP             4 L     NAD     0 **** NAD L 401
