@<TRIPOS>MOLECULE
4g1w_G1W_1_ligand
   57    60     1     0     0
SMALL
NO_CHARGES


@<TRIPOS>ATOM
     1 C1           1.8630     4.0110   -12.8000 C.ar         1 G1W401   0.0000
     2 C2           1.8920     3.1210   -13.8750 C.ar         1 G1W401   0.0000
     3 C3           0.9010     2.1580   -14.0600 C.ar         1 G1W401   0.0000
     4 C4          -0.1580     2.1120   -13.1500 C.ar         1 G1W401   0.0000
     5 C5          -0.1780     3.0380   -12.0630 C.ar         1 G1W401   0.0000
     6 C6           0.8450     3.9730   -11.8820 C.ar         1 G1W401   0.0000
     7 C7          -1.2560     2.9560   -11.0790 C.2          1 G1W401   0.0000
     8 O8          -1.2980     3.7450   -10.1580 O.2          1 G1W401   0.0000
     9 N9          -1.1840     1.1930   -13.2610 N.pl3        1 G1W401   0.0000
    10 C10         -1.2010     0.3360   -14.3780 C.ar         1 G1W401   0.0000
    11 C11         -2.0860     0.5890   -15.4290 C.ar         1 G1W401   0.0000
    12 C12         -2.1170    -0.2430   -16.5490 C.ar         1 G1W401   0.0000
    13 C13         -1.2610    -1.3320   -16.5930 C.ar         1 G1W401   0.0000
    14 C14         -0.3660    -1.5830   -15.5470 C.ar         1 G1W401   0.0000
    15 C15         -0.3460    -0.7610   -14.4260 C.ar         1 G1W401   0.0000
    16 C16         -2.2370     1.9480   -11.2310 C.2          1 G1W401   0.0000
    17 C17         -3.3380     1.8340   -10.1890 C.3          1 G1W401   0.0000
    18 C18         -2.8740     0.9190    -9.0700 C.ar         1 G1W401   0.0000
    19 C19         -1.9110     1.3550    -8.1630 C.ar         1 G1W401   0.0000
    20 C20         -1.4820     0.5230    -7.1170 C.ar         1 G1W401   0.0000
    21 C21         -2.0180    -0.7600    -6.9620 C.ar         1 G1W401   0.0000
    22 C22         -2.9920    -1.1940    -7.8740 C.ar         1 G1W401   0.0000
    23 C23         -3.4110    -0.3630    -8.9140 C.ar         1 G1W401   0.0000
    24 S24         -1.4770    -1.8320    -5.6330 S.o2         1 G1W401   0.0000
    25 F25          2.9110     3.2140   -14.7450 F            1 G1W401   0.0000
    26 C26         -2.1810     1.1030   -12.3000 C.2          1 G1W401   0.0000
    27 C27         -3.2460     0.0680   -12.4320 C.2          1 G1W401   0.0000
    28 C28         -2.4610    -1.2730    -4.1940 C.3          1 G1W401   0.0000
    29 C29         -1.5870    -0.3690    -3.2850 C.3          1 G1W401   0.0000
    30 O30         -1.9190    -0.6130    -1.8910 O.3          1 G1W401   0.0000
    31 O31         -4.3780     0.3870   -12.7810 O.2          1 G1W401   0.0000
    32 O32         -2.9690    -1.2350   -12.1800 O.3          1 G1W401   0.0000
    33 C33         -3.9660    -2.2640   -12.5010 C.3          1 G1W401   0.0000
    34 O34         -1.9590    -3.0900    -6.1200 O.2          1 G1W401   0.0000
    35 O35         -0.0750    -1.6070    -5.4070 O.2          1 G1W401   0.0000
    36 H1           2.5944     4.6853   -12.6980 H            1 G1W401   0.0000
    37 H2           0.9471     1.5160   -14.8253 H            1 G1W401   0.0000
    38 H3           0.8348     4.5989   -11.1022 H            1 G1W401   0.0000
    39 H4          -2.7034     1.3740   -15.3782 H            1 G1W401   0.0000
    40 H5          -2.7446    -0.0570   -17.3050 H            1 G1W401   0.0000
    41 H6          -1.2832    -1.9460   -17.3820 H            1 G1W401   0.0000
    42 H7           0.2629    -2.3582   -15.6062 H            1 G1W401   0.0000
    43 H8           0.2736    -0.9551   -13.6654 H            1 G1W401   0.0000
    44 H9          -4.1607     1.4543   -10.6120 H            1 G1W401   0.0000
    45 H10         -3.5419     2.7398    -9.8175 H            1 G1W401   0.0000
    46 H11         -1.5209     2.2709    -8.2581 H            1 G1W401   0.0000
    47 H12         -0.7870     0.8503    -6.4768 H            1 G1W401   0.0000
    48 H13         -3.3894    -2.1066    -7.7780 H            1 G1W401   0.0000
    49 H14         -4.1047    -0.6886    -9.5565 H            1 G1W401   0.0000
    50 H15         -2.7705    -2.0686    -3.6732 H            1 G1W401   0.0000
    51 H16         -3.2543    -0.7551    -4.5143 H            1 G1W401   0.0000
    52 H17         -1.7600     0.5910    -3.5052 H            1 G1W401   0.0000
    53 H18         -0.6211    -0.5773    -3.4385 H            1 G1W401   0.0000
    54 H19         -1.3547    -0.0295    -1.3069 H            1 G1W401   0.0000
    55 H20         -3.6069    -3.1643   -12.2551 H            1 G1W401   0.0000
    56 H21         -4.8048    -2.0877   -11.9858 H            1 G1W401   0.0000
    57 H22         -4.1654    -2.2408   -13.4806 H            1 G1W401   0.0000
@<TRIPOS>BOND
     1    1    2      ar
     2    1    6      ar
     3    2    3      ar
     4    2   25       1
     5    3    4      ar
     6    4    5      ar
     7    4    9       1
     8    5    6      ar
     9    5    7       1
    10    7    8       2
    11    7   16       1
    12    9   10       1
    13    9   26       1
    14   10   11      ar
    15   10   15      ar
    16   11   12      ar
    17   12   13      ar
    18   13   14      ar
    19   14   15      ar
    20   16   17       1
    21   16   26       2
    22   17   18       1
    23   18   19      ar
    24   18   23      ar
    25   19   20      ar
    26   20   21      ar
    27   21   22      ar
    28   21   24       1
    29   22   23      ar
    30   24   28       1
    31   24   34       2
    32   24   35       2
    33   26   27       1
    34   27   31       2
    35   27   32       1
    36   28   29       1
    37   29   30       1
    38   32   33       1
    39    1   36       1
    40    3   37       1
    41    6   38       1
    42   11   39       1
    43   12   40       1
    44   13   41       1
    45   14   42       1
    46   15   43       1
    47   17   44       1
    48   17   45       1
    49   19   46       1
    50   20   47       1
    51   22   48       1
    52   23   49       1
    53   28   50       1
    54   28   51       1
    55   29   52       1
    56   29   53       1
    57   30   54       1
    58   33   55       1
    59   33   56       1
    60   33   57       1
@<TRIPOS>SUBSTRUCTURE
     1 G1W401      1 GROUP             4 A     G1W     0 **** G1W A 401
