@<TRIPOS>MOLECULE
1l8a_TDP_1_ligand
   43    44     1     0     0
SMALL
NO_CHARGES


@<TRIPOS>ATOM
     1 N1'         26.8140   -36.4550     7.9810 N.ar         1 TDP887   1.0000
     2 C2'         27.4250   -37.3600     8.8250 C.ar         1 TDP887   0.0000
     3 C2A         27.3850   -38.7960     8.4300 C.3          1 TDP887   0.0000
     4 N3'         28.0610   -36.9930     9.9380 N.ar         1 TDP887   0.0000
     5 C4'         28.1230   -35.6440    10.2660 C.ar         1 TDP887   0.0000
     6 N4'         28.7790   -35.3450    11.3700 N.pl3        1 TDP887   0.0000
     7 C5'         27.4840   -34.6360     9.3810 C.ar         1 TDP887   0.0000
     8 C6'         26.8480   -35.1090     8.2650 C.ar         1 TDP887   0.0000
     9 C35         27.5480   -33.1410     9.5980 C.3          1 TDP887   0.0000
    10 N3          26.7830   -32.6460    10.8080 N.2          1 TDP887   1.0000
    11 C2          27.3780   -32.1680    11.8940 C.2          1 TDP887   0.0000
    12 S1          26.2940   -31.6220    13.0450 S.3          1 TDP887   0.0000
    13 C5          24.9460   -32.0600    12.0460 C.2          1 TDP887   0.0000
    14 C4          25.3680   -32.5960    10.8620 C.2          1 TDP887   0.0000
    15 C4A         24.5130   -33.0640     9.7100 C.3          1 TDP887   0.0000
    16 C5A         23.5500   -31.9520    12.5500 C.3          1 TDP887   0.0000
    17 C5B         23.4140   -32.6610    13.8660 C.3          1 TDP887   0.0000
    18 O5G         22.0190   -32.7130    14.2040 O.3          1 TDP887   0.0000
    19 P1          21.4670   -33.7180    15.3230 P.3          1 TDP887   0.0000
    20 O11         22.1880   -33.2180    16.6760 O.3          1 TDP887   0.0000
    21 O12         20.0230   -33.4950    15.4250 O.co2        1 TDP887   0.0000
    22 O13         21.9470   -35.1030    15.0320 O.co2        1 TDP887  -1.0000
    23 P2          22.2150   -31.8700    17.5550 P.3          1 TDP887   0.0000
    24 O21         22.2830   -32.3270    19.0440 O.co2        1 TDP887   0.0000
    25 O22         23.4630   -31.1440    17.2090 O.co2        1 TDP887  -1.0000
    26 O23         20.9540   -31.1510    17.3240 O.co2        1 TDP887  -1.0000
    27 H2A1        27.8586   -39.3446     9.1190 H            1 TDP887   0.0000
    28 H2A2        26.4337   -39.0964     8.3610 H            1 TDP887   0.0000
    29 H2A3        27.8358   -38.9109     7.5448 H            1 TDP887   0.0000
    30 H4'1        28.8597   -34.3917    11.6610 H            1 TDP887   0.0000
    31 H4'2        29.1958   -36.0715    11.9163 H            1 TDP887   0.0000
    32 H6'         26.4001   -34.4649     7.6450 H            1 TDP887   0.0000
    33 H7          27.1733   -32.6918     8.7869 H            1 TDP887   0.0000
    34 H8          28.5077   -32.8827     9.7087 H            1 TDP887   0.0000
    35 H9          28.3706   -32.1375    12.0118 H            1 TDP887   0.0000
    36 H4A1        23.5474   -32.9475     9.9427 H            1 TDP887   0.0000
    37 H4A2        24.7270   -32.5248     8.8955 H            1 TDP887   0.0000
    38 H4A3        24.6980   -34.0298     9.5284 H            1 TDP887   0.0000
    39 H5A1        22.9269   -32.3661    11.8864 H            1 TDP887   0.0000
    40 H5A2        23.3163   -30.9871    12.6696 H            1 TDP887   0.0000
    41 H5B1        23.9155   -32.1622    14.5729 H            1 TDP887   0.0000
    42 H5B2        23.7790   -33.5889    13.7902 H            1 TDP887   0.0000
    43 H1'         26.3446   -36.7788     7.1595 H            1 TDP887   0.0000
@<TRIPOS>BOND
     1    1    2      ar
     2    1    8      ar
     3    2    3       1
     4    2    4      ar
     5    4    5      ar
     6    5    6       1
     7    5    7      ar
     8    7    8      ar
     9    7    9       1
    10    9   10       1
    11   10   11       2
    12   10   14       1
    13   11   12       1
    14   12   13       1
    15   13   14       2
    16   13   16       1
    17   14   15       1
    18   16   17       1
    19   17   18       1
    20   18   19       1
    21   19   20       1
    22   19   21      ar
    23   19   22      ar
    24   20   23       1
    25   23   24      ar
    26   23   25      ar
    27   23   26      ar
    28    3   27       1
    29    3   28       1
    30    3   29       1
    31    6   30       1
    32    6   31       1
    33    8   32       1
    34    9   33       1
    35    9   34       1
    36   11   35       1
    37   15   36       1
    38   15   37       1
    39   15   38       1
    40   16   39       1
    41   16   40       1
    42   17   41       1
    43   17   42       1
    44    1   43       1
@<TRIPOS>SUBSTRUCTURE
     1 TDP887      1 GROUP             4 A     TDP     0 **** TDP A 887
