@<TRIPOS>MOLECULE
3tfu_PL8_2_ligand
   47    48     1     0     0
SMALL
NO_CHARGES


@<TRIPOS>ATOM
     1 CAA         38.7070    11.1970   -26.4240 C.3          1 PL8501   0.0000
     2 OAB         41.0210     5.1570   -22.1150 O.2          1 PL8501   0.0000
     3 OAC         34.5690     3.8000   -24.3190 O.co2        1 PL8501   0.0000
     4 OAD         44.9890     5.0140   -18.4000 O.3          1 PL8501   0.0000
     5 OAE         38.9790    10.2540   -23.8670 O.3          1 PL8501   0.0000
     6 OAF         33.7580     5.4420   -22.5480 O.co2        1 PL8501  -1.0000
     7 OAG         36.1810     4.6170   -22.4570 O.co2        1 PL8501  -1.0000
     8 CAH         41.1590     8.7880   -20.3950 C.2          1 PL8501   0.0000
     9 CAI         40.1290     8.4800   -21.2730 C.2          1 PL8501   0.0000
    10 CAJ         37.0500     7.9050   -26.5760 C.ar         1 PL8501   0.0000
    11 CAK         44.4430     6.0440   -19.2330 C.3          1 PL8501   0.0000
    12 CAL         43.7530     7.0980   -18.3570 C.3          1 PL8501   0.0000
    13 CAM         43.1490     8.2430   -19.1900 C.3          1 PL8501   0.0000
    14 CAN         38.0290     7.8500   -23.0050 C.3          1 PL8501   0.0000
    15 CAO         36.7170     6.1940   -24.8780 C.3          1 PL8501   0.0000
    16 NAP         39.1180     6.9020   -22.7190 N.pl3        1 PL8501   0.0000
    17 NAQ         42.0990     6.5860   -20.6960 N.pl3        1 PL8501  -1.0000
    18 NAR         37.5580     9.1700   -26.9620 N.ar         1 PL8501   1.0000
    19 OAS         35.3980     6.2450   -24.3600 O.3          1 PL8501   0.0000
    20 CAT         38.1930     9.9440   -26.0650 C.ar         1 PL8501   0.0000
    21 CAU         42.1460     7.8550   -20.0920 C.2          1 PL8501   0.0000
    22 CAV         37.1930     7.4470   -25.2640 C.ar         1 PL8501   0.0000
    23 CAW         38.3360     9.4750   -24.7670 C.ar         1 PL8501   0.0000
    24 CAX         40.0980     7.2340   -21.8820 C.2          1 PL8501   0.0000
    25 CAY         37.8720     8.2360   -24.3430 C.ar         1 PL8501   0.0000
    26 CAZ         41.0600     6.2710   -21.5920 C.2          1 PL8501   0.0000
    27 PBA         34.9360     5.0510   -23.3640 P.3          1 PL8501   0.0000
    28 HAA1        39.1406    11.6198   -25.6283 H            1 PL8501   0.0000
    29 HAA2        39.3837    11.0837   -27.1515 H            1 PL8501   0.0000
    30 HAA3        37.9635    11.7818   -26.7485 H            1 PL8501   0.0000
    31 HAD         44.3063     4.2954   -18.2677 H            1 PL8501   0.0000
    32 HAE         39.0950     9.9385   -22.9252 H            1 PL8501   0.0000
    33 HAH         41.1923     9.6943   -19.9737 H            1 PL8501   0.0000
    34 HAI         39.4139     9.1520   -21.4653 H            1 PL8501   0.0000
    35 HAJ         36.5835     7.3331   -27.2508 H            1 PL8501   0.0000
    36 HAK1        43.7760     5.6452   -19.8624 H            1 PL8501   0.0000
    37 HAK2        45.1786     6.4748   -19.7558 H            1 PL8501   0.0000
    38 HAL1        44.4258     7.4808   -17.7239 H            1 PL8501   0.0000
    39 HAL2        43.0209     6.6563   -17.8385 H            1 PL8501   0.0000
    40 HAM1        43.8874     8.6699   -19.7120 H            1 PL8501   0.0000
    41 HAM2        42.7568     8.9123   -18.5590 H            1 PL8501   0.0000
    42 HAN1        38.1968     8.6767   -22.4679 H            1 PL8501   0.0000
    43 HAN2        37.1726     7.4277   -22.7080 H            1 PL8501   0.0000
    44 HAO1        36.7246     5.5896   -25.6747 H            1 PL8501   0.0000
    45 HAO2        37.3232     5.8247   -24.1736 H            1 PL8501   0.0000
    46 HAP         39.1215     6.0027   -23.1564 H            1 PL8501   0.0000
    47 HAR         37.4440     9.4876   -27.9033 H            1 PL8501   0.0000
@<TRIPOS>BOND
     1    1   20       1
     2    2   26       2
     3    3   27      ar
     4    4   11       1
     5    5   23       1
     6    6   27      ar
     7    7   27      ar
     8    8    9       1
     9    8   21       2
    10    9   24       2
    11   10   18      ar
    12   10   22      ar
    13   11   12       1
    14   12   13       1
    15   13   21       1
    16   14   16       1
    17   14   25       1
    18   15   19       1
    19   15   22       1
    20   16   24       1
    21   17   21       1
    22   17   26       1
    23   18   20      ar
    24   19   27       1
    25   20   23      ar
    26   22   25      ar
    27   23   25      ar
    28   24   26       1
    29    1   28       1
    30    1   29       1
    31    1   30       1
    32   15   45       1
    33    4   31       1
    34    5   32       1
    35   16   46       1
    36    8   33       1
    37    9   34       1
    38   10   35       1
    39   11   36       1
    40   11   37       1
    41   12   38       1
    42   12   39       1
    43   13   40       1
    44   13   41       1
    45   14   42       1
    46   14   43       1
    47   15   44       1
    48   18   47       1
@<TRIPOS>SUBSTRUCTURE
     1 PL8501      1 GROUP             4 B     PL8     0 **** PL8 B 501
