@<TRIPOS>MOLECULE
3s1d_ZIR_1_ligand
   43    45     1     0     0
SMALL
NO_CHARGES


@<TRIPOS>ATOM
     1 N1         -36.0530   -16.7400    -2.6460 N.ar         1 ZIR536   0.0000
     2 C2         -35.7970   -15.5800    -2.0920 C.ar         1 ZIR536   0.0000
     3 N3         -36.4320   -14.5240    -2.4490 N.ar         1 ZIR536   0.0000
     4 C4         -37.3910   -14.5630    -3.3730 C.ar         1 ZIR536   0.0000
     5 C5         -37.6900   -15.7620    -3.9740 C.ar         1 ZIR536   0.0000
     6 C6         -36.9920   -16.8770    -3.5990 C.ar         1 ZIR536   0.0000
     7 N7         -38.6500   -15.5640    -4.8640 N.2          1 ZIR536   0.0000
     8 C8         -38.9510   -14.3170    -4.8130 C.2          1 ZIR536   0.0000
     9 N9         -38.1860   -13.6730    -3.9240 N.pl3        1 ZIR536   0.0000
    10 C1'        -38.2770   -12.2230    -3.6150 C.3          1 ZIR536   0.0000
    11 N10        -37.2980   -18.0520    -4.1550 N.2          1 ZIR536   0.0000
    12 C11        -37.2560   -19.2390    -3.3150 C.2          1 ZIR536   0.0000
    13 C12        -38.0430   -20.3090    -3.7100 C.2          1 ZIR536   0.0000
    14 C13        -37.9070   -21.5400    -3.1160 C.2          1 ZIR536   0.0000
    15 C14        -36.8700   -21.6240    -2.0490 C.3          1 ZIR536   0.0000
    16 C15        -38.7120   -22.7830    -3.5040 C.3          1 ZIR536   0.0000
    17 C2'        -38.3700   -11.2880    -4.8230 C.3          1 ZIR536   0.0000
    18 O2'        -37.1270   -10.8140    -5.1530 O.3          1 ZIR536   0.0000
    19 C3'        -39.2300   -10.1460    -4.3190 C.3          1 ZIR536   0.0000
    20 O3'        -38.5290    -9.3220    -3.3770 O.3          1 ZIR536   0.0000
    21 C4'        -40.2900   -10.9900    -3.6280 C.3          1 ZIR536   0.0000
    22 O4'        -39.6200   -12.1520    -3.1280 O.3          1 ZIR536   0.0000
    23 C5'        -41.2570   -11.5040    -4.6460 C.3          1 ZIR536   0.0000
    24 O5'        -42.4940   -11.0380    -4.2760 O.3          1 ZIR536   0.0000
    25 H1         -35.0967   -15.5173    -1.3809 H            1 ZIR536   0.0000
    26 H2         -39.6635   -13.8839    -5.3651 H            1 ZIR536   0.0000
    27 H1'        -37.6011   -11.9243    -2.9412 H            1 ZIR536   0.0000
    28 H4         -36.6875   -19.2807    -2.4934 H            1 ZIR536   0.0000
    29 H5         -38.7184   -20.1834    -4.4366 H            1 ZIR536   0.0000
    30 H6         -36.8463   -22.5530    -1.6796 H            1 ZIR536   0.0000
    31 H7         -35.9759   -21.3956    -2.4344 H            1 ZIR536   0.0000
    32 H8         -37.0919   -20.9798    -1.3171 H            1 ZIR536   0.0000
    33 H9         -38.4337   -23.5530    -2.9299 H            1 ZIR536   0.0000
    34 H10        -39.6868   -22.6036    -3.3714 H            1 ZIR536   0.0000
    35 H11        -38.5414   -23.0043    -4.4642 H            1 ZIR536   0.0000
    36 H2'        -38.7993   -11.7463    -5.6013 H            1 ZIR536   0.0000
    37 H13        -36.5268   -11.5813    -5.3790 H            1 ZIR536   0.0000
    38 H3'        -39.6133    -9.6089    -5.0704 H            1 ZIR536   0.0000
    39 H15        -37.5515    -9.3328    -3.5874 H            1 ZIR536   0.0000
    40 H4'        -40.7512   -10.4841    -2.8991 H            1 ZIR536   0.0000
    41 H5'1       -41.2522   -12.5040    -4.6535 H            1 ZIR536   0.0000
    42 H5'2       -41.0165   -11.1627    -5.5547 H            1 ZIR536   0.0000
    43 H5'        -42.6583   -10.1505    -4.7064 H            1 ZIR536   0.0000
@<TRIPOS>BOND
     1    1    2      ar
     2    1    6      ar
     3    2    3      ar
     4    3    4      ar
     5    4    5      ar
     6    4    9       1
     7    5    6      ar
     8    5    7       1
     9    6   11       1
    10    7    8       2
    11    8    9       1
    12    9   10       1
    13   10   17       1
    14   10   22       1
    15   11   12       2
    16   12   13       1
    17   13   14       2
    18   14   15       1
    19   14   16       1
    20   17   18       1
    21   17   19       1
    22   19   20       1
    23   19   21       1
    24   21   22       1
    25   21   23       1
    26   23   24       1
    27    2   25       1
    28    8   26       1
    29   10   27       1
    30   12   28       1
    31   13   29       1
    32   15   30       1
    33   15   31       1
    34   15   32       1
    35   16   33       1
    36   16   34       1
    37   16   35       1
    38   17   36       1
    39   18   37       1
    40   19   38       1
    41   20   39       1
    42   21   40       1
    43   23   41       1
    44   23   42       1
    45   24   43       1
@<TRIPOS>SUBSTRUCTURE
     1 ZIR536      1 GROUP             4 A     ZIR     0 **** ZIR A 536
