@<TRIPOS>MOLECULE
4m2b_UPG_1_ligand
   58    60     1     0     0
SMALL
NO_CHARGES


@<TRIPOS>ATOM
     1 N1          26.3330    37.9840    44.8920 N.pl3        1 UPG1001   0.0000
     2 C2          27.0540    38.2760    46.0780 C.2          1 UPG1001   0.0000
     3 N3          27.5770    37.2830    46.8000 N.pl3        1 UPG1001   0.0000
     4 C4          27.4070    35.9930    46.4340 C.2          1 UPG1001   0.0000
     5 C5          26.6720    35.6620    45.2750 C.2          1 UPG1001   0.0000
     6 C6          26.1370    36.7000    44.5180 C.2          1 UPG1001   0.0000
     7 O2          27.2180    39.4630    46.4970 O.2          1 UPG1001   0.0000
     8 O4          27.9340    35.0950    47.1440 O.2          1 UPG1001   0.0000
     9 C1C         25.7460    39.0890    44.1300 C.3          1 UPG1001   0.0000
    10 C2C         26.0950    39.1720    42.6400 C.3          1 UPG1001   0.0000
    11 O2C         27.3280    39.8320    42.4500 O.3          1 UPG1001   0.0000
    12 C3C         24.9170    39.9760    42.0770 C.3          1 UPG1001   0.0000
    13 C4C         23.7310    39.5350    42.9610 C.3          1 UPG1001   0.0000
    14 O4C         24.3190    39.0010    44.1480 O.3          1 UPG1001   0.0000
    15 O3C         25.0340    41.3890    42.3190 O.3          1 UPG1001   0.0000
    16 C5C         22.8050    38.4870    42.3110 C.3          1 UPG1001   0.0000
    17 O5C         23.5560    37.3170    41.9790 O.3          1 UPG1001   0.0000
    18 PA          23.3640    36.5380    40.5880 P.3          1 UPG1001   0.0000
    19 O1A         23.4790    37.5660    39.5300 O.co2        1 UPG1001   0.0000
    20 O2A         24.2160    35.3090    40.4830 O.co2        1 UPG1001  -1.0000
    21 O3A         21.8100    36.1710    40.5790 O.3          1 UPG1001   0.0000
    22 PB          21.1610    34.8710    41.2070 P.3          1 UPG1001   0.0000
    23 O1B         21.6140    34.5670    42.6240 O.co2        1 UPG1001   0.0000
    24 O2B         21.0150    33.7590    40.2170 O.co2        1 UPG1001  -1.0000
    25 O3B         19.6270    35.3430    41.2160 O.3          1 UPG1001   0.0000
    26 C1'         19.1970    36.4740    41.9790 C.3          1 UPG1001   0.0000
    27 C2'         18.0740    36.0050    42.8820 C.3          1 UPG1001   0.0000
    28 C3'         16.9890    35.4160    41.9850 C.3          1 UPG1001   0.0000
    29 C4'         16.4720    36.5230    41.0520 C.3          1 UPG1001   0.0000
    30 C5'         17.5620    37.0900    40.1760 C.3          1 UPG1001   0.0000
    31 C6'         17.0950    38.3210    39.4460 C.3          1 UPG1001   0.0000
    32 O2'         18.5240    35.0290    43.8100 O.3          1 UPG1001   0.0000
    33 O3'         15.8850    34.9220    42.7730 O.3          1 UPG1001   0.0000
    34 O4'         15.4260    35.9630    40.2700 O.3          1 UPG1001   0.0000
    35 O5'         18.6850    37.4900    41.0350 O.3          1 UPG1001   0.0000
    36 O6'         18.1520    38.7840    38.5510 O.3          1 UPG1001   0.0000
    37 H1          28.1023    37.4964    47.6237 H            1 UPG1001   0.0000
    38 H2          26.5395    34.7082    45.0055 H            1 UPG1001   0.0000
    39 H3          25.6063    36.4955    43.6955 H            1 UPG1001   0.0000
    40 H1C         26.0141    39.9488    44.5647 H            1 UPG1001   0.0000
    41 H2C         26.1208    38.2581    42.2349 H            1 UPG1001   0.0000
    42 H6          27.7727    39.4773    41.6276 H            1 UPG1001   0.0000
    43 H3C         24.7566    39.7753    41.1106 H            1 UPG1001   0.0000
    44 H4C         23.1896    40.3405    43.2019 H            1 UPG1001   0.0000
    45 H9          25.0726    41.5564    43.3041 H            1 UPG1001   0.0000
    46 H5C1        22.4022    38.8700    41.4797 H            1 UPG1001   0.0000
    47 H5C2        22.0774    38.2436    42.9524 H            1 UPG1001   0.0000
    48 H1'         19.9532    36.8434    42.5191 H            1 UPG1001   0.0000
    49 H2'         17.7018    36.7880    43.3803 H            1 UPG1001   0.0000
    50 H3'         17.3725    34.6702    41.4403 H            1 UPG1001   0.0000
    51 H4'         16.0938    37.2613    41.6104 H            1 UPG1001   0.0000
    52 H5'         17.8649    36.3992    39.5194 H            1 UPG1001   0.0000
    53 H6'1        16.8792    39.0394    40.1073 H            1 UPG1001   0.0000
    54 H6'2        16.2779    38.1027    38.9125 H            1 UPG1001   0.0000
    55 H19         18.4195    34.1175    43.4121 H            1 UPG1001   0.0000
    56 H20         16.0454    33.9632    43.0073 H            1 UPG1001   0.0000
    57 H21         14.7667    36.6771    40.0348 H            1 UPG1001   0.0000
    58 H6'         18.0460    38.3489    37.6569 H            1 UPG1001   0.0000
@<TRIPOS>BOND
     1    1    2       1
     2    1    6       1
     3    1    9       1
     4    2    3       1
     5    2    7       2
     6    3    4       1
     7    4    5       1
     8    4    8       2
     9    5    6       2
    10    9   10       1
    11    9   14       1
    12   10   11       1
    13   10   12       1
    14   12   13       1
    15   12   15       1
    16   13   14       1
    17   13   16       1
    18   16   17       1
    19   17   18       1
    20   18   19      ar
    21   18   20      ar
    22   18   21       1
    23   21   22       1
    24   22   23      ar
    25   22   24      ar
    26   22   25       1
    27   25   26       1
    28   26   27       1
    29   26   35       1
    30   27   28       1
    31   27   32       1
    32   28   29       1
    33   28   33       1
    34   29   30       1
    35   29   34       1
    36   30   31       1
    37   30   35       1
    38   31   36       1
    39    3   37       1
    40    5   38       1
    41    6   39       1
    42    9   40       1
    43   10   41       1
    44   11   42       1
    45   12   43       1
    46   13   44       1
    47   15   45       1
    48   16   46       1
    49   16   47       1
    50   36   58       1
    51   34   57       1
    52   26   48       1
    53   27   49       1
    54   28   50       1
    55   29   51       1
    56   30   52       1
    57   31   53       1
    58   31   54       1
    59   32   55       1
    60   33   56       1
@<TRIPOS>SUBSTRUCTURE
     1 UPG1001     1 GROUP             4 A     UPG     0 **** UPG A1001
