@<TRIPOS>MOLECULE
4iv0_SAM_2_ligand
   50    52     1     0     0
SMALL
NO_CHARGES


@<TRIPOS>ATOM
     1 N          -14.3010   -18.9250   -52.3650 N.4          1 SAM302   1.0000
     2 CA         -13.3790   -18.9660   -53.5100 C.3          1 SAM302   0.0000
     3 C          -13.9000   -19.8870   -54.5920 C.2          1 SAM302   0.0000
     4 O          -13.3190   -19.9410   -55.6770 O.co2        1 SAM302   0.0000
     5 OXT        -14.9010   -20.5790   -54.3770 O.co2        1 SAM302  -1.0000
     6 CB         -12.0010   -19.4360   -53.0520 C.3          1 SAM302   0.0000
     7 CG         -11.9540   -20.8760   -52.5440 C.3          1 SAM302   0.0000
     8 SD         -10.2770   -21.3790   -52.0980 S.3          1 SAM302   1.0000
     9 CE         -10.4450   -23.1770   -52.0230 C.3          1 SAM302   0.0000
    10 C5'        -10.1690   -20.9100   -50.3470 C.3          1 SAM302   0.0000
    11 C4'         -9.7600   -19.4490   -50.1960 C.3          1 SAM302   0.0000
    12 O4'         -9.6450   -19.1160   -48.8190 O.3          1 SAM302   0.0000
    13 C3'         -8.4010   -19.1360   -50.8110 C.3          1 SAM302   0.0000
    14 O3'         -8.5730   -18.1670   -51.8160 O.3          1 SAM302   0.0000
    15 C2'         -7.5790   -18.5920   -49.6430 C.3          1 SAM302   0.0000
    16 O2'         -6.6300   -17.5900   -49.9810 O.3          1 SAM302   0.0000
    17 C1'         -8.6800   -18.0980   -48.7190 C.3          1 SAM302   0.0000
    18 N9          -8.2830   -17.9750   -47.3190 N.pl3        1 SAM302   0.0000
    19 C8          -7.5750   -18.8790   -46.5760 C.2          1 SAM302   0.0000
    20 N7          -7.4250   -18.3740   -45.3250 N.2          1 SAM302   0.0000
    21 C5          -8.0500   -17.1690   -45.2580 C.ar         1 SAM302   0.0000
    22 C6          -8.2040   -16.2430   -44.2320 C.ar         1 SAM302   0.0000
    23 N6          -7.6990   -16.4500   -43.0150 N.pl3        1 SAM302   0.0000
    24 N1          -8.8840   -15.0820   -44.4930 N.ar         1 SAM302   0.0000
    25 C2          -9.4010   -14.8650   -45.7550 C.ar         1 SAM302   0.0000
    26 N3          -9.2650   -15.7810   -46.7680 N.ar         1 SAM302   0.0000
    27 C4          -8.5890   -16.9130   -46.5140 C.ar         1 SAM302   0.0000
    28 H1         -13.9359   -18.3114   -51.6649 H            1 SAM302   0.0000
    29 H2         -15.1939   -18.5916   -52.6678 H            1 SAM302   0.0000
    30 HA         -13.2945   -18.0437   -53.8870 H            1 SAM302   0.0000
    31 HB1        -11.6966   -18.8349   -52.3131 H            1 SAM302   0.0000
    32 HB2        -11.3722   -19.3579   -53.8257 H            1 SAM302   0.0000
    33 HG1        -12.2934   -21.4834   -53.2622 H            1 SAM302   0.0000
    34 HG2        -12.5400   -20.9535   -51.7374 H            1 SAM302   0.0000
    35 HE1         -9.5647   -23.5842   -51.7796 H            1 SAM302   0.0000
    36 HE2        -11.1267   -23.4196   -51.3327 H            1 SAM302   0.0000
    37 HE3        -10.7366   -23.5220   -52.9151 H            1 SAM302   0.0000
    38 H5'1        -9.4895   -21.4880   -49.8951 H            1 SAM302   0.0000
    39 H5'2       -11.0614   -21.0458   -49.9166 H            1 SAM302   0.0000
    40 H4'        -10.4547   -18.8671   -50.6187 H            1 SAM302   0.0000
    41 H3'         -7.9818   -19.9635   -51.1845 H            1 SAM302   0.0000
    42 H15         -8.9639   -17.3379   -51.4162 H            1 SAM302   0.0000
    43 H2'         -7.1029   -19.3522   -49.2010 H            1 SAM302   0.0000
    44 H17         -7.0581   -16.6888   -49.9126 H            1 SAM302   0.0000
    45 H1'         -9.0519   -17.2318   -49.0527 H            1 SAM302   0.0000
    46 H19         -7.2279   -19.7596   -46.8985 H            1 SAM302   0.0000
    47 H20         -7.8264   -15.7651   -42.2976 H            1 SAM302   0.0000
    48 H21         -7.1929   -17.2901   -42.8199 H            1 SAM302   0.0000
    49 H22         -9.8907   -14.0123   -45.9368 H            1 SAM302   0.0000
    50 H23        -14.4001   -19.8442   -51.9838 H            1 SAM302   0.0000
@<TRIPOS>BOND
     1    1    2       1
     2    2    3       1
     3    2    6       1
     4    3    4      ar
     5    3    5      ar
     6    6    7       1
     7    7    8       1
     8    8    9       1
     9    8   10       1
    10   10   11       1
    11   11   12       1
    12   11   13       1
    13   12   17       1
    14   13   14       1
    15   13   15       1
    16   15   16       1
    17   15   17       1
    18   17   18       1
    19   18   19       1
    20   18   27       1
    21   19   20       2
    22   20   21       1
    23   21   22      ar
    24   21   27      ar
    25   22   23       1
    26   22   24      ar
    27   24   25      ar
    28   25   26      ar
    29   26   27      ar
    30    1   28       1
    31    1   29       1
    32    2   30       1
    33    1   50       1
    34    6   31       1
    35    6   32       1
    36    7   33       1
    37    7   34       1
    38    9   35       1
    39    9   36       1
    40    9   37       1
    41   10   38       1
    42   10   39       1
    43   11   40       1
    44   13   41       1
    45   14   42       1
    46   15   43       1
    47   16   44       1
    48   17   45       1
    49   19   46       1
    50   23   47       1
    51   23   48       1
    52   25   49       1
@<TRIPOS>SUBSTRUCTURE
     1 SAM302      1 GROUP             4 B     SAM     0 **** SAM B 302
