@<TRIPOS>MOLECULE
1p9b_IMO_1_ligand
   37    39     1     0     0
SMALL
NO_CHARGES


@<TRIPOS>ATOM
     1 P           30.3700    81.3550    28.8180 P.3          1 IMO1601   0.0000
     2 O1          29.5860    81.8710    29.9960 O.co2        1 IMO1601   0.0000
     3 C2          27.8470    83.6560    26.1160 C.ar         1 IMO1601   0.0000
     4 C1'         29.8800    86.8580    23.8370 C.3          1 IMO1601   0.0000
     5 C2'         29.5280    88.2930    24.2060 C.3          1 IMO1601   0.0000
     6 C3'         29.7500    88.9570    22.8390 C.3          1 IMO1601   0.0000
     7 C4'         31.0050    88.2540    22.3330 C.3          1 IMO1601   0.0000
     8 C5'         32.3010    88.9940    22.6240 C.3          1 IMO1601   0.0000
     9 O2          31.7010    80.8030    29.2930 O.co2        1 IMO1601  -1.0000
    10 O3          29.5730    80.3450    27.9900 O.co2        1 IMO1601  -1.0000
    11 PA          33.6190    89.5110    24.9160 P.3          1 IMO1601   0.0000
    12 O1A         33.2400    90.1210    26.2420 O.co2        1 IMO1601   0.0000
    13 O2A         34.6440    90.3220    24.1310 O.co2        1 IMO1601  -1.0000
    14 O3A         34.0790    88.0810    25.1120 O.co2        1 IMO1601  -1.0000
    15 O5'         32.2910    89.5050    23.9850 O.3          1 IMO1601   0.0000
    16 O4'         31.0100    86.9610    22.9770 O.3          1 IMO1601   0.0000
    17 N9          30.3130    85.9690    24.9180 N.pl3        1 IMO1601   0.0000
    18 C4          29.5650    85.0040    25.5420 C.ar         1 IMO1601   0.0000
    19 N3          28.2460    84.6680    25.3110 N.ar         1 IMO1601   0.0000
    20 N1          28.5810    82.9860    27.0490 N.ar         1 IMO1601   0.0000
    21 C6          29.9000    83.3420    27.2350 C.ar         1 IMO1601   0.0000
    22 O6          30.7140    82.6460    27.8650 O.3          1 IMO1601   0.0000
    23 C5          30.4350    84.4130    26.4700 C.ar         1 IMO1601   0.0000
    24 N7          31.6870    85.0080    26.4340 N.2          1 IMO1601   0.0000
    25 C8          31.5690    85.9190    25.5060 C.2          1 IMO1601   0.0000
    26 O2'         28.1780    88.3840    24.6110 O.3          1 IMO1601   0.0000
    27 O3'         28.6940    88.6970    21.9060 O.3          1 IMO1601   0.0000
    28 H1          26.8962    83.3636    26.0138 H            1 IMO1601   0.0000
    29 H1'         29.1175    86.4406    23.3427 H            1 IMO1601   0.0000
    30 H2'         30.1479    88.6591    24.9001 H            1 IMO1601   0.0000
    31 H3'         29.9056    89.9397    22.9392 H            1 IMO1601   0.0000
    32 H4'         30.9242    88.1217    21.3451 H            1 IMO1601   0.0000
    33 H5'1        32.3965    89.7573    21.9850 H            1 IMO1601   0.0000
    34 H5'2        33.0720    88.3671    22.5120 H            1 IMO1601   0.0000
    35 H8          32.3178    86.5271    25.2422 H            1 IMO1601   0.0000
    36 H9          27.5848    88.0866    23.8629 H            1 IMO1601   0.0000
    37 H10         28.8950    89.1536    21.0393 H            1 IMO1601   0.0000
@<TRIPOS>BOND
     1    1    2      ar
     2    1    9      ar
     3    1   10      ar
     4    1   22       1
     5    3   19      ar
     6    3   20      ar
     7    4    5       1
     8    4   16       1
     9    4   17       1
    10    5    6       1
    11    5   26       1
    12    6    7       1
    13    6   27       1
    14    7    8       1
    15    7   16       1
    16    8   15       1
    17   11   12      ar
    18   11   13      ar
    19   11   14      ar
    20   11   15       1
    21   17   18       1
    22   17   25       1
    23   18   19      ar
    24   18   23      ar
    25   20   21      ar
    26   21   22       1
    27   21   23      ar
    28   23   24       1
    29   24   25       2
    30   27   37       1
    31    3   28       1
    32    4   29       1
    33    5   30       1
    34    6   31       1
    35    7   32       1
    36    8   33       1
    37    8   34       1
    38   26   36       1
    39   25   35       1
@<TRIPOS>SUBSTRUCTURE
     1 IMO1601     1 GROUP             4 A     IMO     0 **** IMO A1601
