@<TRIPOS>MOLECULE
4nqn_Y1Z_1_ligand
   60    65     1     0     0
SMALL
NO_CHARGES


@<TRIPOS>ATOM
     1 OBD        -12.8810    20.3840   -14.5480 O.2          1 Y1Z201   0.0000
     2 SBB        -12.8470    18.9200   -14.6530 S.o2         1 Y1Z201   0.0000
     3 OBC        -11.5920    18.4700   -15.1740 O.2          1 Y1Z201   0.0000
     4 CBE        -14.0960    18.3640   -15.5380 C.ar         1 Y1Z201   0.0000
     5 CBF        -13.8120    17.5960   -16.6670 C.ar         1 Y1Z201   0.0000
     6 CBG        -14.8180    17.0610   -17.4630 C.ar         1 Y1Z201   0.0000
     7 CBH        -16.1490    17.3450   -17.1510 C.ar         1 Y1Z201   0.0000
     8 CBI        -16.4740    18.0760   -16.0300 C.ar         1 Y1Z201   0.0000
     9 CBJ        -15.4410    18.5790   -15.2190 C.ar         1 Y1Z201   0.0000
    10 CL         -15.9230    19.5890   -13.8480 Cl           1 Y1Z201   0.0000
    11 NAU        -12.9760    18.4420   -13.0980 N.pl3        1 Y1Z201   0.0000
    12 CAS        -13.0930    17.1350   -12.7000 C.ar         1 Y1Z201   0.0000
    13 CAR        -13.8910    16.9280   -11.5460 C.ar         1 Y1Z201   0.0000
    14 NAV        -14.3880    18.0570   -10.8530 N.pl3        1 Y1Z201   0.0000
    15 CBA        -15.7820    18.0240   -10.4300 C.3          1 Y1Z201   0.0000
    16 CAZ        -16.1860    19.3740    -9.8280 C.3          1 Y1Z201   0.0000
    17 OAY        -15.2570    19.7100    -8.7980 O.3          1 Y1Z201   0.0000
    18 CAX        -13.8940    19.8930    -9.2440 C.3          1 Y1Z201   0.0000
    19 CAW        -13.3990    18.5980    -9.8630 C.3          1 Y1Z201   0.0000
    20 CAQ        -14.1050    15.6340   -11.0620 C.ar         1 Y1Z201   0.0000
    21 CAP        -13.6110    14.5500   -11.7500 C.ar         1 Y1Z201   0.0000
    22 CAO        -12.8420    14.7610   -12.8960 C.ar         1 Y1Z201   0.0000
    23 CAT        -12.6190    16.0590   -13.3730 C.ar         1 Y1Z201   0.0000
    24 CAG        -12.3570    13.5170   -13.5190 C.2          1 Y1Z201   0.0000
    25 CAD        -12.3860    13.1880   -14.9170 C.ar         1 Y1Z201   0.0000
    26 CAC        -12.9700    14.0460   -15.8510 C.ar         1 Y1Z201   0.0000
    27 CAB        -12.9610    13.6470   -17.2140 C.ar         1 Y1Z201   0.0000
    28 CAA        -12.4210    12.4310   -17.6370 C.ar         1 Y1Z201   0.0000
    29 CAF        -11.8550    11.5520   -16.6980 C.ar         1 Y1Z201   0.0000
    30 CAE        -11.8670    11.9420   -15.3500 C.ar         1 Y1Z201   0.0000
    31 CAJ        -11.3410    11.0900   -14.3450 C.2          1 Y1Z201   0.0000
    32 NAI        -11.3580    11.4430   -13.0480 N.pl3        1 Y1Z201   0.0000
    33 NAH        -11.7650    12.6950   -12.6200 N.2          1 Y1Z201   0.0000
    34 NAM        -10.8350     9.8530   -14.4150 N.2          1 Y1Z201   0.0000
    35 NAL        -10.4540     9.5040   -13.0700 N.2          1 Y1Z201   0.0000
    36 CAK        -10.7680    10.5030   -12.2730 C.2          1 Y1Z201   0.0000
    37 CAN        -10.5970    10.5370   -10.7690 C.3          1 Y1Z201   0.0000
    38 HBF        -12.8573    17.4254   -16.9108 H            1 Y1Z201   0.0000
    39 HBG        -14.5922    16.4821   -18.2465 H            1 Y1Z201   0.0000
    40 HBH        -16.8771    17.0126   -17.7505 H            1 Y1Z201   0.0000
    41 HBI        -17.4311    18.2467   -15.7960 H            1 Y1Z201   0.0000
    42 HAU        -12.9693    19.1478   -12.3896 H            1 Y1Z201   0.0000
    43 HBA1       -15.9016    17.3072    -9.7430 H            1 Y1Z201   0.0000
    44 HBA2       -16.3623    17.8282   -11.2205 H            1 Y1Z201   0.0000
    45 HAZ1       -17.1067    19.3092    -9.4431 H            1 Y1Z201   0.0000
    46 HAZ2       -16.1704    20.0777   -10.5383 H            1 Y1Z201   0.0000
    47 HAX1       -13.3158    20.1348    -8.4648 H            1 Y1Z201   0.0000
    48 HAX2       -13.8592    20.6248    -9.9246 H            1 Y1Z201   0.0000
    49 HAW1       -12.5314    18.7702   -10.3295 H            1 Y1Z201   0.0000
    50 HAW2       -13.2597    17.9226    -9.1388 H            1 Y1Z201   0.0000
    51 HAQ        -14.6178    15.4962   -10.2146 H            1 Y1Z201   0.0000
    52 HAP        -13.8007    13.6208   -11.4327 H            1 Y1Z201   0.0000
    53 HAT        -12.1042    16.1929   -14.2198 H            1 Y1Z201   0.0000
    54 HAC        -13.3811    14.9130   -15.5694 H            1 Y1Z201   0.0000
    55 HAB        -13.3567    14.2608   -17.8971 H            1 Y1Z201   0.0000
    56 HAA        -12.4370    12.1860   -18.6064 H            1 Y1Z201   0.0000
    57 HAF        -11.4575    10.6790   -16.9805 H            1 Y1Z201   0.0000
    58 HAN1       -10.1249     9.7083   -10.4684 H            1 Y1Z201   0.0000
    59 HAN2       -10.0578    11.3393   -10.5129 H            1 Y1Z201   0.0000
    60 HAN3       -11.4953    10.5858   -10.3324 H            1 Y1Z201   0.0000
@<TRIPOS>BOND
     1    1    2       2
     2    2    3       2
     3    2    4       1
     4    2   11       1
     5    4    5      ar
     6    4    9      ar
     7    5    6      ar
     8    6    7      ar
     9    7    8      ar
    10    8    9      ar
    11    9   10       1
    12   11   12       1
    13   12   13      ar
    14   12   23      ar
    15   13   14       1
    16   13   20      ar
    17   14   15       1
    18   14   19       1
    19   15   16       1
    20   16   17       1
    21   17   18       1
    22   18   19       1
    23   20   21      ar
    24   21   22      ar
    25   22   23      ar
    26   22   24       1
    27   24   25       1
    28   24   33       2
    29   25   26      ar
    30   25   30      ar
    31   26   27      ar
    32   27   28      ar
    33   28   29      ar
    34   29   30      ar
    35   30   31       1
    36   31   32       1
    37   31   34       2
    38   32   33       1
    39   32   36       1
    40   34   35       1
    41   35   36       2
    42   36   37       1
    43    5   38       1
    44    6   39       1
    45    7   40       1
    46    8   41       1
    47   11   42       1
    48   15   43       1
    49   15   44       1
    50   16   45       1
    51   16   46       1
    52   18   47       1
    53   18   48       1
    54   19   49       1
    55   19   50       1
    56   20   51       1
    57   21   52       1
    58   23   53       1
    59   26   54       1
    60   27   55       1
    61   28   56       1
    62   29   57       1
    63   37   58       1
    64   37   59       1
    65   37   60       1
@<TRIPOS>SUBSTRUCTURE
     1 Y1Z201      1 GROUP             4 A     Y1Z     0 **** Y1Z A 201
