@<TRIPOS>MOLECULE
2wuf_KEM_1_ligand
   48    49     1     0     0
SMALL
NO_CHARGES


@<TRIPOS>ATOM
     1 C01          9.8520   -39.5360     9.4710 C.3          1 KEM1289   0.0000
     2 C02         10.0020   -40.8720    10.2100 C.3          1 KEM1289   0.0000
     3 C03          9.3170   -40.9380    11.5830 C.2          1 KEM1289   0.0000
     4 C04          9.3580   -39.8410    12.3420 C.2          1 KEM1289   0.0000
     5 C05          8.8290   -39.7800    13.7770 C.2          1 KEM1289   0.0000
     6 O06          8.7710   -40.7940    14.3670 O.2          1 KEM1289   0.0000
     7 C07          8.4360   -38.4380    14.4350 C.2          1 KEM1289   0.0000
     8 O08          8.1160   -37.2910    13.7200 O.co2        1 KEM1289   0.0000
     9 O09          8.8250   -38.1850    15.5080 O.co2        1 KEM1289  -1.0000
    10 C10         11.4110   -41.4270    10.1720 C.2          1 KEM1289   0.0000
    11 O11         11.7950   -41.8220    11.1990 O.2          1 KEM1289   0.0000
    12 C12         12.3530   -40.8410     9.0590 C.3          1 KEM1289   0.0000
    13 C13         11.8860   -40.7930     7.5550 C.3          1 KEM1289   0.0000
    14 C14         13.1880   -40.7600     6.6710 C.3          1 KEM1289   0.0000
    15 C15         13.1780   -40.5560     5.0860 C.3          1 KEM1289   0.0000
    16 C16         13.6170   -39.1350     4.6850 C.3          1 KEM1289   0.0000
    17 C17         14.2080   -39.2170     3.2680 C.3          1 KEM1289   0.0000
    18 C18         14.8770   -40.5890     3.1900 C.2          1 KEM1289   0.0000
    19 O19         15.3420   -41.0980     2.2260 O.2          1 KEM1289   0.0000
    20 C20         14.2690   -41.4080     4.3180 C.3          1 KEM1289   0.0000
    21 C21         13.7930   -42.7620     3.7230 C.3          1 KEM1289   0.0000
    22 C22         15.3830   -41.8210     5.2510 C.3          1 KEM1289   0.0000
    23 C23         14.6720   -42.8430     6.1110 C.3          1 KEM1289   0.0000
    24 C24         13.8430   -42.0530     7.0810 C.2          1 KEM1289   0.0000
    25 O25         13.5430   -42.5400     8.0880 O.2          1 KEM1289   0.0000
    26 H1          10.3270   -39.5859     8.5925 H            1 KEM1289   0.0000
    27 H2           8.8822   -39.3482     9.3154 H            1 KEM1289   0.0000
    28 H3          10.2490   -38.8031    10.0235 H            1 KEM1289   0.0000
    29 H4           9.4776   -41.5141     9.6508 H            1 KEM1289   0.0000
    30 H5           8.8585   -41.7698    11.8958 H            1 KEM1289   0.0000
    31 H6           9.7571   -39.0117    11.9509 H            1 KEM1289   0.0000
    32 H7          13.1927   -41.3836     9.0804 H            1 KEM1289   0.0000
    33 H8          12.5580   -39.8990     9.3249 H            1 KEM1289   0.0000
    34 H9          11.3386   -39.9723     7.3912 H            1 KEM1289   0.0000
    35 H10         11.3435   -41.6044     7.3376 H            1 KEM1289   0.0000
    36 H11         13.7590   -40.0280     7.0428 H            1 KEM1289   0.0000
    37 H12         12.2683   -40.7513     4.7196 H            1 KEM1289   0.0000
    38 H13         14.3081   -38.7979     5.3243 H            1 KEM1289   0.0000
    39 H14         12.8288   -38.5196     4.6912 H            1 KEM1289   0.0000
    40 H15         14.8805   -38.4906     3.1262 H            1 KEM1289   0.0000
    41 H16         13.4848   -39.1403     2.5817 H            1 KEM1289   0.0000
    42 H17         14.5589   -43.2119     3.2637 H            1 KEM1289   0.0000
    43 H18         13.4543   -43.3487     4.4586 H            1 KEM1289   0.0000
    44 H19         13.0594   -42.5969     3.0637 H            1 KEM1289   0.0000
    45 H20         15.7127   -41.0489     5.7943 H            1 KEM1289   0.0000
    46 H21         16.1480   -42.2285     4.7524 H            1 KEM1289   0.0000
    47 H22         15.3356   -43.4091     6.6000 H            1 KEM1289   0.0000
    48 H23         14.0873   -43.4265     5.5474 H            1 KEM1289   0.0000
@<TRIPOS>BOND
     1    1    2       1
     2    2    3       1
     3    2   10       1
     4    3    4       2
     5    4    5       1
     6    5    6       2
     7    5    7       1
     8    7    8      ar
     9    7    9      ar
    10   10   11       2
    11   10   12       1
    12   12   13       1
    13   13   14       1
    14   14   15       1
    15   14   24       1
    16   15   16       1
    17   15   20       1
    18   16   17       1
    19   17   18       1
    20   18   19       2
    21   18   20       1
    22   20   21       1
    23   20   22       1
    24   22   23       1
    25   23   24       1
    26   24   25       2
    27    1   26       1
    28    1   27       1
    29    1   28       1
    30    2   29       1
    31    3   30       1
    32    4   31       1
    33   23   48       1
    34   12   32       1
    35   12   33       1
    36   13   34       1
    37   13   35       1
    38   14   36       1
    39   15   37       1
    40   16   38       1
    41   16   39       1
    42   17   40       1
    43   17   41       1
    44   21   42       1
    45   21   43       1
    46   21   44       1
    47   22   45       1
    48   22   46       1
    49   23   47       1
@<TRIPOS>SUBSTRUCTURE
     1 KEM1289     1 GROUP             4 B     KEM     0 **** KEM B1289
