@<TRIPOS>MOLECULE
4ho6_UTP_2_ligand
   40    41     1     0     0
SMALL
NO_CHARGES


@<TRIPOS>ATOM
     1 PA          20.1400   -14.2530    -5.9710 P.3          1 UTP301   0.0000
     2 O1A         19.5350   -15.6200    -6.2500 O.co2        1 UTP301   0.0000
     3 O2A         21.3910   -13.8510    -6.7550 O.co2        1 UTP301  -1.0000
     4 O3A         20.4170   -14.1020    -4.3330 O.3          1 UTP301   0.0000
     5 O5'         19.0410   -13.1100    -6.2910 O.3          1 UTP301   0.0000
     6 PB          21.0180   -12.7320    -3.5940 P.3          1 UTP301   0.0000
     7 O1B         20.0840   -12.3590    -2.4430 O.co2        1 UTP301   0.0000
     8 O2B         21.3980   -11.7070    -4.6580 O.co2        1 UTP301  -1.0000
     9 O3B         22.3860   -13.2600    -2.8690 O.3          1 UTP301   0.0000
    10 PG          23.9590   -13.0060    -3.2660 P.3          1 UTP301   0.0000
    11 O1G         24.3070   -14.3270    -3.9690 O.co2        1 UTP301   0.0000
    12 O2G         24.0050   -11.7550    -4.1420 O.co2        1 UTP301  -1.0000
    13 O3G         24.6590   -12.8220    -1.9170 O.co2        1 UTP301  -1.0000
    14 C5'         18.0350   -12.7200    -5.3600 C.3          1 UTP301   0.0000
    15 C4'         16.8850   -12.1950    -6.1870 C.3          1 UTP301   0.0000
    16 O4'         17.3670   -11.0390    -6.9180 O.3          1 UTP301   0.0000
    17 C1'         17.0040   -11.1670    -8.3240 C.3          1 UTP301   0.0000
    18 C2'         16.9320   -12.6430    -8.5740 C.3          1 UTP301   0.0000
    19 O2'         16.0310   -12.8900    -9.6580 O.3          1 UTP301   0.0000
    20 C3'         16.4380   -13.1950    -7.2420 C.3          1 UTP301   0.0000
    21 O3'         15.0340   -13.1690    -7.2680 O.3          1 UTP301   0.0000
    22 N1          18.0350   -10.5030    -9.1380 N.pl3        1 UTP301   0.0000
    23 C6          19.3370   -10.8050    -8.9310 C.2          1 UTP301   0.0000
    24 C2          17.6600    -9.5450    -9.9820 C.2          1 UTP301   0.0000
    25 O2          16.4290    -9.3050   -10.1800 O.2          1 UTP301   0.0000
    26 N3          18.5920    -8.8320   -10.6430 N.pl3        1 UTP301   0.0000
    27 C4          19.9150    -9.1020   -10.4970 C.2          1 UTP301   0.0000
    28 O4          20.8150    -8.3620   -11.1640 O.2          1 UTP301   0.0000
    29 C5          20.3280   -10.0910    -9.6100 C.2          1 UTP301   0.0000
    30 H5'1        18.3816   -12.0049    -4.7529 H            1 UTP301   0.0000
    31 H5'2        17.7415   -13.5059    -4.8158 H            1 UTP301   0.0000
    32 H4'         16.1177   -11.9414    -5.5980 H            1 UTP301   0.0000
    33 H1'         16.1119   -10.7463    -8.4887 H            1 UTP301   0.0000
    34 H2'         17.8397   -13.0051    -8.7860 H            1 UTP301   0.0000
    35 H6          15.6639   -12.0214    -9.9909 H            1 UTP301   0.0000
    36 H3'         16.7924   -14.1127    -7.0623 H            1 UTP301   0.0000
    37 H8          14.7219   -12.2479    -7.5009 H            1 UTP301   0.0000
    38 H9          19.5891   -11.5350    -8.2957 H            1 UTP301   0.0000
    39 H10         18.3052    -8.0918   -11.2512 H            1 UTP301   0.0000
    40 H11         21.2983   -10.2839    -9.4637 H            1 UTP301   0.0000
@<TRIPOS>BOND
     1    1    2      ar
     2    1    3      ar
     3    1    4       1
     4    1    5       1
     5    4    6       1
     6    5   14       1
     7    6    7      ar
     8    6    8      ar
     9    6    9       1
    10    9   10       1
    11   10   11      ar
    12   10   12      ar
    13   10   13      ar
    14   14   15       1
    15   15   16       1
    16   15   20       1
    17   16   17       1
    18   17   18       1
    19   17   22       1
    20   18   19       1
    21   18   20       1
    22   20   21       1
    23   22   23       1
    24   22   24       1
    25   23   29       2
    26   24   25       2
    27   24   26       1
    28   26   27       1
    29   27   28       2
    30   27   29       1
    31   29   40       1
    32   26   39       1
    33   23   38       1
    34   21   37       1
    35   14   30       1
    36   14   31       1
    37   15   32       1
    38   17   33       1
    39   18   34       1
    40   19   35       1
    41   20   36       1
@<TRIPOS>SUBSTRUCTURE
     1 UTP301      1 GROUP             4 A     UTP     0 **** UTP A 301
