@<TRIPOS>MOLECULE
3n4k_SAH_1_ligand
   46    48     1     0     0
SMALL
NO_CHARGES


@<TRIPOS>ATOM
     1 N          -21.7920    -4.5460   -13.1870 N.4          1 SAH201   1.0000
     2 CA         -21.7320    -5.3620   -14.4090 C.3          1 SAH201   0.0000
     3 CB         -20.4570    -4.9940   -15.1920 C.3          1 SAH201   0.0000
     4 CG         -20.6400    -4.7270   -16.6840 C.3          1 SAH201   0.0000
     5 SD         -19.0530    -4.4400   -17.4880 S.3          1 SAH201   0.0000
     6 C          -21.7400    -6.7910   -13.9360 C.2          1 SAH201   0.0000
     7 O          -20.9430    -7.6610   -14.3030 O.co2        1 SAH201   0.0000
     8 OXT        -22.5840    -7.1340   -13.1040 O.co2        1 SAH201  -1.0000
     9 C5'        -19.5810    -4.3440   -19.2060 C.3          1 SAH201   0.0000
    10 C4'        -19.4730    -5.6600   -19.9920 C.3          1 SAH201   0.0000
    11 O4'        -18.0750    -6.0630   -20.0510 O.3          1 SAH201   0.0000
    12 C3'        -20.1620    -6.8980   -19.3920 C.3          1 SAH201   0.0000
    13 O3'        -21.5730    -6.8340   -19.6540 O.3          1 SAH201   0.0000
    14 C2'        -19.4570    -8.0760   -20.0580 C.3          1 SAH201   0.0000
    15 O2'        -19.9390    -8.3060   -21.3800 O.3          1 SAH201   0.0000
    16 C1'        -18.0250    -7.5080   -20.1600 C.3          1 SAH201   0.0000
    17 N9         -17.2190    -7.9860   -19.0240 N.pl3        1 SAH201   0.0000
    18 C8         -16.6910    -7.2810   -17.9870 C.2          1 SAH201   0.0000
    19 N7         -15.9730    -8.1180   -17.1510 N.2          1 SAH201   0.0000
    20 C5         -16.0580    -9.3590   -17.7160 C.ar         1 SAH201   0.0000
    21 C6         -15.5030   -10.6870   -17.3860 C.ar         1 SAH201   0.0000
    22 N6         -14.7360   -10.8220   -16.2800 N.pl3        1 SAH201   0.0000
    23 N1         -15.8550   -11.7250   -18.1780 N.ar         1 SAH201   0.0000
    24 C2         -16.6140   -11.5540   -19.3010 C.ar         1 SAH201   0.0000
    25 N3         -17.1110   -10.3590   -19.6950 N.ar         1 SAH201   0.0000
    26 C4         -16.8620    -9.2650   -18.9110 C.ar         1 SAH201   0.0000
    27 H1         -22.6169    -4.7779   -12.6715 H            1 SAH201   0.0000
    28 H2         -20.9854    -4.7281   -12.6247 H            1 SAH201   0.0000
    29 HA         -22.5388    -5.1872   -14.9734 H            1 SAH201   0.0000
    30 HB1        -19.8092    -5.7495   -15.0938 H            1 SAH201   0.0000
    31 HB2        -20.0719    -4.1688   -14.7787 H            1 SAH201   0.0000
    32 HG1        -21.2178    -3.9196   -16.8033 H            1 SAH201   0.0000
    33 HG2        -21.0820    -5.5185   -17.1061 H            1 SAH201   0.0000
    34 H5'1       -19.0155    -3.6600   -19.6668 H            1 SAH201   0.0000
    35 H5'2       -20.5370    -4.0511   -19.2210 H            1 SAH201   0.0000
    36 H4'        -19.8116    -5.5150   -20.9217 H            1 SAH201   0.0000
    37 H3'        -20.0040    -6.9257   -18.4049 H            1 SAH201   0.0000
    38 H12        -21.8604    -5.8773   -19.7000 H            1 SAH201   0.0000
    39 H2'        -19.4940    -8.9022   -19.4959 H            1 SAH201   0.0000
    40 H14        -20.3208    -9.2283   -21.4398 H            1 SAH201   0.0000
    41 H1'        -17.6032    -7.7783   -21.0254 H            1 SAH201   0.0000
    42 H16        -16.8056    -6.2973   -17.8485 H            1 SAH201   0.0000
    43 H17        -14.3529   -11.7148   -16.0431 H            1 SAH201   0.0000
    44 H18        -14.5521   -10.0290   -15.6992 H            1 SAH201   0.0000
    45 H19        -16.8133   -12.3568   -19.8630 H            1 SAH201   0.0000
    46 H20        -21.8145    -3.5772   -13.4339 H            1 SAH201   0.0000
@<TRIPOS>BOND
     1    1    2       1
     2    2    3       1
     3    2    6       1
     4    3    4       1
     5    4    5       1
     6    5    9       1
     7    6    7      ar
     8    6    8      ar
     9    9   10       1
    10   10   11       1
    11   10   12       1
    12   11   16       1
    13   12   13       1
    14   12   14       1
    15   14   15       1
    16   14   16       1
    17   16   17       1
    18   17   18       1
    19   17   26       1
    20   18   19       2
    21   19   20       1
    22   20   21      ar
    23   20   26      ar
    24   21   22       1
    25   21   23      ar
    26   23   24      ar
    27   24   25      ar
    28   25   26      ar
    29    1   27       1
    30    1   28       1
    31    2   29       1
    32    3   30       1
    33    3   31       1
    34    4   32       1
    35    4   33       1
    36    1   46       1
    37    9   34       1
    38    9   35       1
    39   10   36       1
    40   12   37       1
    41   13   38       1
    42   14   39       1
    43   15   40       1
    44   16   41       1
    45   18   42       1
    46   22   43       1
    47   22   44       1
    48   24   45       1
@<TRIPOS>SUBSTRUCTURE
     1 SAH201      1 GROUP             4 A     SAH     0 **** SAH A 201
