@<TRIPOS>MOLECULE
4gyz_D5M_1_ligand
   34    36     1     0     0
SMALL
NO_CHARGES


@<TRIPOS>ATOM
     1 O5'         22.1080    75.3040    46.7430 O.3          1 D5M401   0.0000
     2 C5'         20.8750    74.6900    46.8610 C.3          1 D5M401   0.0000
     3 C4'         19.8240    75.7340    47.0390 C.3          1 D5M401   0.0000
     4 O4'         20.0070    76.4170    48.2150 O.3          1 D5M401   0.0000
     5 C3'         19.9120    76.7240    45.9380 C.3          1 D5M401   0.0000
     6 O3'         18.9100    76.5170    45.0150 O.3          1 D5M401   0.0000
     7 C2'         19.7640    78.0690    46.5520 C.3          1 D5M401   0.0000
     8 C1'         19.7190    77.7540    48.0130 C.3          1 D5M401   0.0000
     9 N9          20.6750    78.5650    48.7040 N.pl3        1 D5M401   0.0000
    10 C8          21.9150    78.2420    49.0670 C.2          1 D5M401   0.0000
    11 N7          22.5190    79.2360    49.6890 N.2          1 D5M401   0.0000
    12 C5          21.6100    80.2270    49.7120 C.ar         1 D5M401   0.0000
    13 C6          21.6510    81.4760    50.2090 C.ar         1 D5M401   0.0000
    14 N6          22.8560    81.9710    50.7920 N.pl3        1 D5M401   0.0000
    15 N1          20.5690    82.2730    50.0980 N.ar         1 D5M401   0.0000
    16 C2          19.5720    81.8960    49.2070 C.ar         1 D5M401   0.0000
    17 N3          19.3350    80.5560    48.9430 N.ar         1 D5M401   0.0000
    18 C4          20.4520    79.8420    49.1080 C.ar         1 D5M401   0.0000
    19 P           23.3790    74.4230    46.5180 P.3          1 D5M401   0.0000
    20 O1P         23.5800    73.5200    47.7160 O.co2        1 D5M401   0.0000
    21 O3P         24.5800    75.3170    46.3330 O.co2        1 D5M401  -1.0000
    22 O2P         23.1810    73.5830    45.2780 O.co2        1 D5M401  -1.0000
    23 H5'1        20.8791    74.0805    47.6538 H            1 D5M401   0.0000
    24 H5'2        20.6843    74.1605    46.0344 H            1 D5M401   0.0000
    25 H4'         18.9203    75.3059    47.0354 H            1 D5M401   0.0000
    26 H3'         20.8035    76.6532    45.4905 H            1 D5M401   0.0000
    27 H5          18.9867    77.1933    44.2824 H            1 D5M401   0.0000
    28 H2'1        18.9195    78.5125    46.2517 H            1 D5M401   0.0000
    29 H2'2        20.5444    78.6545    46.3323 H            1 D5M401   0.0000
    30 H1'         18.8039    77.9510    48.3648 H            1 D5M401   0.0000
    31 H9          22.3372    77.3531    48.8894 H            1 D5M401   0.0000
    32 H10         22.8878    82.8995    51.1619 H            1 D5M401   0.0000
    33 H11         23.6685    81.3893    50.8306 H            1 D5M401   0.0000
    34 H12         19.0214    82.5964    48.7528 H            1 D5M401   0.0000
@<TRIPOS>BOND
     1    1    2       1
     2    1   19       1
     3    2    3       1
     4    3    4       1
     5    3    5       1
     6    4    8       1
     7    5    6       1
     8    5    7       1
     9    7    8       1
    10    8    9       1
    11    9   10       1
    12    9   18       1
    13   10   11       2
    14   11   12       1
    15   12   13      ar
    16   12   18      ar
    17   13   14       1
    18   13   15      ar
    19   15   16      ar
    20   16   17      ar
    21   17   18      ar
    22   19   20      ar
    23   19   21      ar
    24   19   22      ar
    25    2   23       1
    26    2   24       1
    27    3   25       1
    28    5   26       1
    29    6   27       1
    30    7   28       1
    31    7   29       1
    32    8   30       1
    33   10   31       1
    34   14   32       1
    35   14   33       1
    36   16   34       1
@<TRIPOS>SUBSTRUCTURE
     1 D5M401      1 GROUP             4 A     D5M     0 **** D5M A 401
