@<TRIPOS>MOLECULE
3k5h_ATP_2_ligand
   43    45     1     0     0
SMALL
NO_CHARGES


@<TRIPOS>ATOM
     1 PG         -26.6470    -1.3160    44.2750 P.3          1 ATP400   0.0000
     2 O1G        -25.7300    -1.7380    43.1690 O.co2        1 ATP400   0.0000
     3 O2G        -25.7970    -0.8990    45.4450 O.co2        1 ATP400  -1.0000
     4 O3G        -27.7910    -0.3060    43.7730 O.co2        1 ATP400  -1.0000
     5 PB         -28.9390    -2.8690    44.9130 P.3          1 ATP400   0.0000
     6 O1B        -29.3830    -2.4100    46.2670 O.co2        1 ATP400   0.0000
     7 O2B        -29.5760    -2.5270    43.6160 O.co2        1 ATP400  -1.0000
     8 O3B        -27.3800    -2.6110    44.7990 O.3          1 ATP400   0.0000
     9 PA         -28.4570    -5.3860    43.5770 P.3          1 ATP400   0.0000
    10 O1A        -27.4240    -4.8000    42.6640 O.co2        1 ATP400   0.0000
    11 O2A        -29.5950    -6.0120    42.8410 O.co2        1 ATP400  -1.0000
    12 O3A        -28.9190    -4.4490    44.7800 O.3          1 ATP400   0.0000
    13 O5'        -28.0260    -6.7580    44.3150 O.3          1 ATP400   0.0000
    14 C5'        -26.8660    -6.6460    45.1610 C.3          1 ATP400   0.0000
    15 C4'        -26.1140    -7.9490    45.0260 C.3          1 ATP400   0.0000
    16 O4'        -27.0230    -9.0340    45.3500 O.3          1 ATP400   0.0000
    17 C3'        -25.7110    -8.3340    43.6130 C.3          1 ATP400   0.0000
    18 O3'        -24.6090    -7.4930    43.2120 O.3          1 ATP400   0.0000
    19 C2'        -25.5450    -9.8650    43.8060 C.3          1 ATP400   0.0000
    20 O2'        -24.3640   -10.0340    44.5870 O.3          1 ATP400   0.0000
    21 C1'        -26.6420   -10.2350    44.7890 C.3          1 ATP400   0.0000
    22 N9         -27.9250   -10.6020    44.1720 N.pl3        1 ATP400   0.0000
    23 C8         -28.9760    -9.7980    43.8300 C.2          1 ATP400   0.0000
    24 N7         -29.9680   -10.4250    43.1860 N.2          1 ATP400   0.0000
    25 C5         -29.5500   -11.7450    43.1900 C.ar         1 ATP400   0.0000
    26 C6         -30.1400   -12.9310    42.6910 C.ar         1 ATP400   0.0000
    27 N6         -31.2060   -13.1680    42.0970 N.pl3        1 ATP400   0.0000
    28 N1         -29.4070   -14.0490    42.8870 N.ar         1 ATP400   0.0000
    29 C2         -28.1570   -13.9980    43.4580 C.ar         1 ATP400   0.0000
    30 N3         -27.5600   -12.9530    43.9430 N.ar         1 ATP400   0.0000
    31 C4         -28.3120   -11.8540    43.7920 C.ar         1 ATP400   0.0000
    32 H5'1       -27.1431    -6.5032    46.1112 H            1 ATP400   0.0000
    33 H5'2       -26.2925    -5.8830    44.8628 H            1 ATP400   0.0000
    34 H4'        -25.3202    -7.9617    45.6340 H            1 ATP400   0.0000
    35 H3'        -26.4836    -8.1677    43.0003 H            1 ATP400   0.0000
    36 H5         -24.0280    -7.9897    42.5673 H            1 ATP400   0.0000
    37 H2'        -25.5570   -10.3920    42.9562 H            1 ATP400   0.0000
    38 H7         -23.5728   -10.1170    43.9811 H            1 ATP400   0.0000
    39 H1'        -26.3390   -10.8999    45.4717 H            1 ATP400   0.0000
    40 H9         -29.0018    -8.8214    44.0434 H            1 ATP400   0.0000
    41 H10        -31.4312   -14.1046    41.8284 H            1 ATP400   0.0000
    42 H11        -31.8383   -12.4221    41.8877 H            1 ATP400   0.0000
    43 H12        -27.6531   -14.8605    43.5045 H            1 ATP400   0.0000
@<TRIPOS>BOND
     1    1    2      ar
     2    1    3      ar
     3    1    4      ar
     4    1    8       1
     5    5    6      ar
     6    5    7      ar
     7    5    8       1
     8    5   12       1
     9    9   10      ar
    10    9   11      ar
    11    9   12       1
    12    9   13       1
    13   13   14       1
    14   14   15       1
    15   15   16       1
    16   15   17       1
    17   16   21       1
    18   17   18       1
    19   17   19       1
    20   19   20       1
    21   19   21       1
    22   21   22       1
    23   22   23       1
    24   22   31       1
    25   23   24       2
    26   24   25       1
    27   25   26      ar
    28   25   31      ar
    29   26   27       1
    30   26   28      ar
    31   28   29      ar
    32   29   30      ar
    33   30   31      ar
    34   29   43       1
    35   27   42       1
    36   27   41       1
    37   23   40       1
    38   14   32       1
    39   14   33       1
    40   15   34       1
    41   17   35       1
    42   18   36       1
    43   19   37       1
    44   20   38       1
    45   21   39       1
@<TRIPOS>SUBSTRUCTURE
     1 ATP400      1 GROUP             4 B     ATP     0 **** ATP B 400
