@<TRIPOS>MOLECULE
4e0u_IMD_2_ligand
    9     9     1     0     0
SMALL
NO_CHARGES


@<TRIPOS>ATOM
     1 N1          13.8540   -22.1470   -15.8020 N.2          1 IMD503   0.0000
     2 C2          14.4390   -23.2770   -16.2730 C.2          1 IMD503   0.0000
     3 N3          15.4960   -23.5840   -15.4820 N.pl3        1 IMD503   0.0000
     4 C4          15.5690   -22.6390   -14.5140 C.2          1 IMD503   0.0000
     5 C5          14.5430   -21.7300   -14.7130 C.2          1 IMD503   0.0000
     6 H1          14.1395   -23.7978   -17.0724 H            1 IMD503   0.0000
     7 H2          16.2480   -22.6037   -13.7807 H            1 IMD503   0.0000
     8 H3          14.3482   -20.9208   -14.1587 H            1 IMD503   0.0000
     9 H4          16.1100   -24.3655   -15.5927 H            1 IMD503   0.0000
@<TRIPOS>BOND
     1    1    2       2
     2    1    5       1
     3    2    3       1
     4    3    4       1
     5    4    5       2
     6    5    8       1
     7    2    6       1
     8    4    7       1
     9    3    9       1
@<TRIPOS>SUBSTRUCTURE
     1 IMD503      1 GROUP             4 A     IMD     0 **** IMD A 503
