@<TRIPOS>MOLECULE
5kl9_COA_1_ligand
   80    82     1     0     0
SMALL
NO_CHARGES


@<TRIPOS>ATOM
     1 N1A         20.0450    10.9910   -17.3320 N.ar         1 COA201   0.0000
     2 C2A         21.4090    10.8960   -17.3370 C.ar         1 COA201   0.0000
     3 N3A         22.1570    11.7030   -16.5320 N.ar         1 COA201   0.0000
     4 C4A         21.5450    12.6140   -15.7160 C.ar         1 COA201   0.0000
     5 C5A         20.1980    12.7120   -15.7090 C.ar         1 COA201   0.0000
     6 C6A         19.4360    11.8880   -16.5300 C.ar         1 COA201   0.0000
     7 N6A         18.0110    11.9960   -16.5190 N.pl3        1 COA201   0.0000
     8 N7A         19.8500    13.6830   -14.8200 N.2          1 COA201   0.0000
     9 C8A         20.9910    14.1850   -14.2810 C.2          1 COA201   0.0000
    10 N9A         22.0400    13.5320   -14.8280 N.pl3        1 COA201   0.0000
    11 C1B         23.4330    13.7010   -14.5710 C.3          1 COA201   0.0000
    12 C2B         23.8500    14.9030   -14.8820 C.3          1 COA201   0.0000
    13 O2B         24.1910    14.9760   -16.2950 O.3          1 COA201   0.0000
    14 C3B         25.1690    15.1250   -13.9590 C.3          1 COA201   0.0000
    15 O3B         26.3000    14.4990   -14.5590 O.3          1 COA201   0.0000
    16 P3B         27.3160    15.3790   -15.4450 P.3          1 COA201   0.0000
    17 O7A         27.7790    14.5440   -16.6150 O.co2        1 COA201   0.0000
    18 O8A         28.5000    15.7840   -14.5960 O.co2        1 COA201  -1.0000
    19 O9A         26.6110    16.6170   -15.9570 O.co2        1 COA201  -1.0000
    20 C4B         24.9210    14.5110   -12.7740 C.3          1 COA201   0.0000
    21 O4B         23.7110    13.6130   -13.0080 O.3          1 COA201   0.0000
    22 C5B         24.6350    15.5160   -11.6680 C.3          1 COA201   0.0000
    23 O5B         23.8200    16.5720   -12.1570 O.3          1 COA201   0.0000
    24 P1A         23.6800    17.8890   -11.2600 P.3          1 COA201   0.0000
    25 O1A         23.8160    17.5070    -9.7940 O.co2        1 COA201   0.0000
    26 O2A         24.8100    18.8410   -11.6240 O.co2        1 COA201  -1.0000
    27 O3A         22.2850    18.6220   -11.4860 O.3          1 COA201   0.0000
    28 P2A         21.0880    18.1880   -12.4090 P.3          1 COA201   0.0000
    29 O4A         20.6730    19.3700   -13.2530 O.co2        1 COA201   0.0000
    30 O5A         21.4720    17.0390   -13.3340 O.co2        1 COA201  -1.0000
    31 O6A         19.8050    17.7430   -11.4830 O.3          1 COA201   0.0000
    32 CBP         18.8390    15.7990   -10.3770 C.3          1 COA201   0.0000
    33 CCP         20.0080    16.8080   -10.4140 C.3          1 COA201   0.0000
    34 CDP         17.5740    16.4040   -11.0460 C.3          1 COA201   0.0000
    35 CEP         18.5260    15.4300    -8.9060 C.3          1 COA201   0.0000
    36 CAP         19.3070    14.5290   -11.1960 C.3          1 COA201   0.0000
    37 OAP         20.6910    14.3840   -11.0500 O.3          1 COA201   0.0000
    38 C9P         18.6050    13.2980   -10.7560 C.2          1 COA201   0.0000
    39 O9P         17.5160    13.0540   -11.1770 O.2          1 COA201   0.0000
    40 N8P         19.2510    12.3790    -9.8260 N.am         1 COA201   0.0000
    41 C7P         18.5630    11.1610    -9.4000 C.3          1 COA201   0.0000
    42 C6P         17.5020    11.5260    -8.3050 C.3          1 COA201   0.0000
    43 C5P         16.9100    10.2100    -7.7190 C.2          1 COA201   0.0000
    44 O5P         16.4240     9.3750    -8.4660 O.2          1 COA201   0.0000
    45 N4P         16.9440     9.9870    -6.2930 N.am         1 COA201   0.0000
    46 C3P         16.4090     8.7970    -5.7530 C.3          1 COA201   0.0000
    47 C2P         14.8930     8.9660    -5.4880 C.3          1 COA201   0.0000
    48 S1P         14.6230    10.2450    -4.2680 S.3          1 COA201   0.0000
    49 H2A         21.8598    10.2319   -17.9335 H            1 COA201   0.0000
    50 H6A1        17.5647    12.6629   -15.9223 H            1 COA201   0.0000
    51 H6A2        17.4602    11.4047   -17.1080 H            1 COA201   0.0000
    52 H8A         21.0455    14.9126   -13.5971 H            1 COA201   0.0000
    53 H1B         23.9648    13.0094   -15.0598 H            1 COA201   0.0000
    54 H2B         23.1509    15.5820   -14.6579 H            1 COA201   0.0000
    55 H7          24.9176    15.6500   -16.4282 H            1 COA201   0.0000
    56 H3B         25.3402    16.1004   -13.8200 H            1 COA201   0.0000
    57 H4B         25.7081    13.9495   -12.5186 H            1 COA201   0.0000
    58 H5B1        25.4988    15.8937   -11.3346 H            1 COA201   0.0000
    59 H5B2        24.1614    15.0545   -10.9179 H            1 COA201   0.0000
    60 HCP1        20.0497    17.3006    -9.5448 H            1 COA201   0.0000
    61 HCP2        20.8667    16.3169   -10.5604 H            1 COA201   0.0000
    62 HDP1        16.8287    15.7381   -11.0130 H            1 COA201   0.0000
    63 HDP2        17.3024    17.2329   -10.5569 H            1 COA201   0.0000
    64 HDP3        17.7767    16.6304   -11.9987 H            1 COA201   0.0000
    65 HEP1        17.7693    14.7767    -8.8800 H            1 COA201   0.0000
    66 HEP2        19.3353    15.0195    -8.4859 H            1 COA201   0.0000
    67 HEP3        18.2712    16.2554    -8.4022 H            1 COA201   0.0000
    68 HAP         19.1039    14.6821   -12.1631 H            1 COA201   0.0000
    69 H21         20.9983    13.5833   -11.5642 H            1 COA201   0.0000
    70 H8P         20.1665    12.5822    -9.4788 H            1 COA201   0.0000
    71 H7P1        19.2271    10.5166    -9.0209 H            1 COA201   0.0000
    72 H7P2        18.1043    10.7439   -10.1846 H            1 COA201   0.0000
    73 H6P1        16.7700    12.0702    -8.7149 H            1 COA201   0.0000
    74 H6P2        17.9396    12.0515    -7.5754 H            1 COA201   0.0000
    75 H4P         17.3460    10.6746    -5.6883 H            1 COA201   0.0000
    76 H3P1        16.8734     8.5863    -4.8928 H            1 COA201   0.0000
    77 H3P2        16.5499     8.0478    -6.4001 H            1 COA201   0.0000
    78 H2P1        14.5176     8.1026    -5.1510 H            1 COA201   0.0000
    79 H2P2        14.4343     9.2190    -6.3398 H            1 COA201   0.0000
    80 H1P         14.0656    10.9734    -4.6664 H            1 COA201   0.0000
@<TRIPOS>BOND
     1    1    2      ar
     2    1    6      ar
     3    2    3      ar
     4    3    4      ar
     5    4    5      ar
     6    4   10       1
     7    5    6      ar
     8    5    8       1
     9    6    7       1
    10    8    9       2
    11    9   10       1
    12   10   11       1
    13   11   12       1
    14   11   21       1
    15   12   13       1
    16   12   14       1
    17   14   15       1
    18   14   20       1
    19   15   16       1
    20   16   17      ar
    21   16   18      ar
    22   16   19      ar
    23   20   21       1
    24   20   22       1
    25   22   23       1
    26   23   24       1
    27   24   25      ar
    28   24   26      ar
    29   24   27       1
    30   27   28       1
    31   28   29      ar
    32   28   30      ar
    33   28   31       1
    34   31   33       1
    35   32   33       1
    36   32   34       1
    37   32   35       1
    38   32   36       1
    39   36   37       1
    40   36   38       1
    41   38   39       2
    42   38   40      am
    43   40   41       1
    44   41   42       1
    45   42   43       1
    46   43   44       2
    47   43   45      am
    48   45   46       1
    49   46   47       1
    50   47   48       1
    51    2   49       1
    52    7   50       1
    53    7   51       1
    54    9   52       1
    55   11   53       1
    56   12   54       1
    57   13   55       1
    58   14   56       1
    59   48   80       1
    60   47   79       1
    61   20   57       1
    62   22   58       1
    63   22   59       1
    64   47   78       1
    65   46   77       1
    66   33   60       1
    67   33   61       1
    68   34   62       1
    69   34   63       1
    70   34   64       1
    71   35   65       1
    72   35   66       1
    73   35   67       1
    74   36   68       1
    75   37   69       1
    76   40   70       1
    77   41   71       1
    78   41   72       1
    79   42   73       1
    80   42   74       1
    81   45   75       1
    82   46   76       1
@<TRIPOS>SUBSTRUCTURE
     1 COA201      1 GROUP             4 A     COA     0 **** COA A 201
