@<TRIPOS>MOLECULE
./coach420/1f0t/ligand.pdb
 30 31 0 0 0
SMALL
GASTEIGER

@<TRIPOS>ATOM
      1 CA         23.0060   16.2580   16.7750 Ca    301  CA301       0.0000
      2  C2        14.1560   -3.5440   23.7510 C.3   304  PR1304      0.0000
      3  C3        13.3000   -4.1340   22.8220 C.2   304  PR1304      0.0000
      4  C4        12.0440   -4.6010   23.2210 C.2   304  PR1304      0.0000
      5  C5        11.6700   -4.4620   24.5630 C.2   304  PR1304      0.0000
      6  C6        12.5100   -3.8680   25.5270 C.2   304  PR1304      0.0000
      7  C10       12.0420   -3.6980   27.0270 C.2   304  PR1304      0.0000
      8  N11       10.7640   -3.9510   27.3770 N.pl3 304  PR1304      0.5000
      9  N12       12.9090   -3.2960   27.9690 N.pl3 304  PR1304      0.5000
     10  C13       11.0480   -5.2790   22.2250 C.3   304  PR1304      0.0000
     11  O44       13.6830   -4.2570   21.5510 O.2   304  PR1304      0.0000
     12  C16       12.8720  -13.0390   24.1350 C.ar  304  PR1304      0.0000
     13  C17       13.8970  -13.4940   24.9520 C.ar  304  PR1304      0.0000
     14  C18       15.0640  -14.0690   24.4210 C.ar  304  PR1304      0.0000
     15  C19       15.2430  -14.2110   23.0270 C.ar  304  PR1304      0.0000
     16  N20       14.2890  -13.7930   22.1540 N.ar  304  PR1304      0.0000
     17  C21       13.0650  -13.1940   22.6230 C.ar  304  PR1304      0.0000
     18  C25       11.9690  -12.6880   21.9200 C.ar  304  PR1304      0.0000
     19  C26       10.9670  -12.1590   22.8150 C.ar  304  PR1304      0.0000
     20  S27       11.3720  -12.2880   24.4850 S.2   304  PR1304      0.0000
     21  N28       11.0900   -6.7510   22.2170 N.am  304  PR1304      0.0000
     22  C29       10.0010   -7.5520   22.3190 C.2   304  PR1304      0.0000
     23  C30       10.4840   -8.9760   22.3110 C.3   304  PR1304      0.0000
     24  C31       11.7780   -8.8860   21.5170 C.3   304  PR1304      0.0000
     25  C32       12.3140   -7.5010   21.8510 C.3   304  PR1304      0.0000
     26  N37        9.8950  -10.0120   21.5570 N.3   304  PR1304      0.0000
     27  S38        9.4800  -11.4170   22.2470 S.O2  304  PR1304      0.0000
     28  O39        8.6800  -11.0280   23.3660 O.2   304  PR1304      0.0000
     29  O40        8.9380  -12.1760   21.1670 O.2   304  PR1304      0.0000
     30  O41        8.8430   -7.1990   22.3950 O.2   304  PR1304      0.0000
@<TRIPOS>BOND
     1     2     3    1
     2     3    11    1
     3     3     4    2
     4     4    10    1
     5     4     5    1
     6     5     6    2
     7     6     7    1
     8     7     8    2
     9     7     9    1
    10    10    21    1
    11    12    17   ar
    12    12    20   ar
    13    12    13   ar
    14    13    14   ar
    15    14    15   ar
    16    15    16   ar
    17    16    17   ar
    18    17    18   ar
    19    18    19   ar
    20    19    27    1
    21    19    20   ar
    22    21    25    1
    23    21    22   am
    24    22    23    1
    25    22    30    2
    26    23    24    1
    27    23    26    1
    28    24    25    1
    29    26    27    1
    30    27    29    2
    31    27    28    2
