@<TRIPOS>MOLECULE
4weq_NAP_1_ligand
   73    77     1     0     0
SMALL
NO_CHARGES


@<TRIPOS>ATOM
     1 PA         -36.3280    21.4780    22.3800 P.3          1 NAP401   0.0000
     2 O1A        -35.0160    20.9970    21.9640 O.co2        1 NAP401   0.0000
     3 O2A        -37.5940    20.7330    21.9610 O.co2        1 NAP401  -1.0000
     4 O5B        -36.4200    21.6290    23.9430 O.3          1 NAP401   0.0000
     5 C5B        -37.6480    21.8410    24.5980 C.3          1 NAP401   0.0000
     6 C4B        -37.4570    21.6900    26.0700 C.3          1 NAP401   0.0000
     7 O4B        -38.6290    22.1190    26.7610 O.3          1 NAP401   0.0000
     8 C3B        -37.2030    20.2480    26.4640 C.3          1 NAP401   0.0000
     9 O3B        -36.2000    20.2710    27.5100 O.3          1 NAP401   0.0000
    10 C2B        -38.5360    19.8090    27.0220 C.3          1 NAP401   0.0000
    11 O2B        -38.3890    18.8320    28.0370 O.3          1 NAP401   0.0000
    12 C1B        -39.0260    21.0400    27.6680 C.3          1 NAP401   0.0000
    13 N9A        -40.4630    21.0210    27.8940 N.pl3        1 NAP401   0.0000
    14 C8A        -41.4840    21.0260    26.9950 C.2          1 NAP401   0.0000
    15 N7A        -42.6700    21.0550    27.5670 N.2          1 NAP401   0.0000
    16 C5A        -42.4030    21.0310    28.9010 C.ar         1 NAP401   0.0000
    17 C6A        -43.2190    21.0010    30.0490 C.ar         1 NAP401   0.0000
    18 N6A        -44.5700    21.0440    29.9900 N.pl3        1 NAP401   0.0000
    19 N1A        -42.6210    21.0200    31.2570 N.ar         1 NAP401   0.0000
    20 C2A        -41.3030    21.0140    31.3370 C.ar         1 NAP401   0.0000
    21 N3A        -40.4300    21.0140    30.3260 N.ar         1 NAP401   0.0000
    22 C4A        -41.0400    21.0260    29.1270 C.ar         1 NAP401   0.0000
    23 O3         -36.5640    22.9620    21.8580 O.3          1 NAP401   0.0000
    24 PN         -35.4840    24.0980    21.4760 P.3          1 NAP401   0.0000
    25 O1N        -34.5660    24.1910    22.6420 O.co2        1 NAP401   0.0000
    26 O2N        -34.8610    23.7750    20.1960 O.co2        1 NAP401  -1.0000
    27 O5D        -36.4140    25.3240    21.3770 O.3          1 NAP401   0.0000
    28 C5D        -37.1420    25.7820    22.4450 C.3          1 NAP401   0.0000
    29 C4D        -38.1070    26.8900    22.0700 C.3          1 NAP401   0.0000
    30 O4D        -37.4880    28.1360    21.8780 O.3          1 NAP401   0.0000
    31 C3D        -38.8560    26.6670    20.7370 C.3          1 NAP401   0.0000
    32 O3D        -39.9950    25.8500    20.9870 O.3          1 NAP401   0.0000
    33 C2D        -39.2950    28.0680    20.2980 C.3          1 NAP401   0.0000
    34 O2D        -40.5950    28.3300    20.7400 O.3          1 NAP401   0.0000
    35 C1D        -38.2990    28.9710    21.0720 C.3          1 NAP401   0.0000
    36 N1N        -37.4230    29.7570    20.1480 N.ar         1 NAP401   1.0000
    37 C2N        -37.4640    31.0890    20.1810 C.ar         1 NAP401   0.0000
    38 C3N        -36.6610    31.8490    19.3480 C.ar         1 NAP401   0.0000
    39 C7N        -36.6260    33.3190    19.4130 C.2          1 NAP401   0.0000
    40 O7N        -36.1250    33.9500    18.4830 O.2          1 NAP401   0.0000
    41 N7N        -37.0980    33.9180    20.4930 N.am         1 NAP401   0.0000
    42 C4N        -35.8210    31.1960    18.4610 C.ar         1 NAP401   0.0000
    43 C5N        -35.7760    29.8150    18.4410 C.ar         1 NAP401   0.0000
    44 C6N        -36.6140    29.0990    19.3250 C.ar         1 NAP401   0.0000
    45 P2B        -38.2490    17.3230    27.6080 P.3          1 NAP401   0.0000
    46 O1X        -38.3450    16.5210    28.9020 O.co2        1 NAP401   0.0000
    47 O2X        -36.9320    17.1140    26.9600 O.co2        1 NAP401  -1.0000
    48 O3X        -39.4370    17.0180    26.7570 O.co2        1 NAP401  -1.0000
    49 H5B1       -38.3171    21.1703    24.2778 H            1 NAP401   0.0000
    50 H5B2       -37.9783    22.7633    24.3973 H            1 NAP401   0.0000
    51 H4B        -36.6814    22.2509    26.3596 H            1 NAP401   0.0000
    52 H3B        -36.9199    19.6897    25.6842 H            1 NAP401   0.0000
    53 H5         -36.3366    19.4905    28.1200 H            1 NAP401   0.0000
    54 H2B        -39.1546    19.5002    26.2996 H            1 NAP401   0.0000
    55 H1B        -38.5581    21.1591    28.5437 H            1 NAP401   0.0000
    56 H8A        -41.3483    21.0094    26.0044 H            1 NAP401   0.0000
    57 H6A1       -45.1083    21.0202    30.8324 H            1 NAP401   0.0000
    58 H6A2       -45.0303    21.0996    29.1040 H            1 NAP401   0.0000
    59 H2A        -40.9146    21.0089    32.2585 H            1 NAP401   0.0000
    60 H5D1       -36.5092    26.1305    23.1365 H            1 NAP401   0.0000
    61 H5D2       -37.6646    25.0191    22.8256 H            1 NAP401   0.0000
    62 H4D        -38.7829    26.9818    22.8012 H            1 NAP401   0.0000
    63 H3D        -38.2569    26.2483    20.0545 H            1 NAP401   0.0000
    64 H16        -39.9275    25.0102    20.4484 H            1 NAP401   0.0000
    65 H2D        -39.2102    28.1883    19.3089 H            1 NAP401   0.0000
    66 H18        -40.8684    29.2462    20.4470 H            1 NAP401   0.0000
    67 H1D        -38.8100    29.6002    21.6577 H            1 NAP401   0.0000
    68 H2N        -38.0847    31.5465    20.8177 H            1 NAP401   0.0000
    69 H7N1       -37.0838    34.9158    20.5579 H            1 NAP401   0.0000
    70 H7N2       -37.4692    33.3733    21.2450 H            1 NAP401   0.0000
    71 H4N        -35.2471    31.7240    17.8351 H            1 NAP401   0.0000
    72 H5N        -35.1636    29.3329    17.8145 H            1 NAP401   0.0000
    73 H6N        -36.5981    28.0991    19.3311 H            1 NAP401   0.0000
@<TRIPOS>BOND
     1    1    2      ar
     2    1    3      ar
     3    1    4       1
     4    1   23       1
     5    4    5       1
     6    5    6       1
     7    6    7       1
     8    6    8       1
     9    7   12       1
    10    8    9       1
    11    8   10       1
    12   10   11       1
    13   10   12       1
    14   11   45       1
    15   12   13       1
    16   13   14       1
    17   13   22       1
    18   14   15       2
    19   15   16       1
    20   16   17      ar
    21   16   22      ar
    22   17   18       1
    23   17   19      ar
    24   19   20      ar
    25   20   21      ar
    26   21   22      ar
    27   23   24       1
    28   24   25      ar
    29   24   26      ar
    30   24   27       1
    31   27   28       1
    32   28   29       1
    33   29   30       1
    34   29   31       1
    35   30   35       1
    36   31   32       1
    37   31   33       1
    38   33   34       1
    39   33   35       1
    40   35   36       1
    41   36   37      ar
    42   36   44      ar
    43   37   38      ar
    44   38   39       1
    45   38   42      ar
    46   39   40       2
    47   39   41      am
    48   42   43      ar
    49   43   44      ar
    50   45   46      ar
    51   45   47      ar
    52   45   48      ar
    53   43   72       1
    54    5   49       1
    55    5   50       1
    56    6   51       1
    57    8   52       1
    58    9   53       1
    59   10   54       1
    60   12   55       1
    61   14   56       1
    62   18   57       1
    63   18   58       1
    64   20   59       1
    65   44   73       1
    66   28   60       1
    67   28   61       1
    68   29   62       1
    69   31   63       1
    70   32   64       1
    71   33   65       1
    72   34   66       1
    73   35   67       1
    74   37   68       1
    75   41   69       1
    76   41   70       1
    77   42   71       1
@<TRIPOS>SUBSTRUCTURE
     1 NAP401      1 GROUP             4 A     NAP     0 **** NAP A 401
