@<TRIPOS>MOLECULE
1uuo_BRF_1_ligand
   42    45     1     0     0
SMALL
NO_CHARGES


@<TRIPOS>ATOM
     1 C1           8.2640    20.9990   118.7190 C.3          1 BRF1397   0.0000
     2 C2           9.4500    21.9250   119.0090 C.ar         1 BRF1397   0.0000
     3 C3           9.3210    23.3790   119.0070 C.ar         1 BRF1397   0.0000
     4 C4          10.7750    21.3720   119.2890 C.ar         1 BRF1397   0.0000
     5 N1          10.4450    24.1850   119.2830 N.ar         1 BRF1397   0.0000
     6 C5          10.9690    19.8650   119.3080 C.2          1 BRF1397   0.0000
     7 C23          8.0970    24.2340   118.7690 C.ar         1 BRF1397   0.0000
     8 C6          11.9180    22.2450   119.5780 C.ar         1 BRF1397   0.0000
     9 C7          11.6850    23.6860   119.5480 C.ar         1 BRF1397   0.0000
    10 C8           7.3190    24.1310   117.5310 C.ar         1 BRF1397   0.0000
    11 C9           7.7120    25.1680   119.8060 C.ar         1 BRF1397   0.0000
    12 O1          10.5900    19.1450   120.1820 O.co2        1 BRF1397   0.0000
    13 O2          11.6250    19.3630   118.2400 O.co2        1 BRF1397  -1.0000
    14 C10         13.2550    21.7990   119.8760 C.ar         1 BRF1397   0.0000
    15 C11         12.7640    24.6220   119.8200 C.ar         1 BRF1397   0.0000
    16 C12          6.1800    24.9840   117.4090 C.ar         1 BRF1397   0.0000
    17 C13          6.5660    26.0120   119.6590 C.ar         1 BRF1397   0.0000
    18 C14         14.3190    22.7050   120.1460 C.ar         1 BRF1397   0.0000
    19 C15         14.0860    24.1440   120.1190 C.ar         1 BRF1397   0.0000
    20 C16          5.7740    25.9240   118.4320 C.ar         1 BRF1397   0.0000
    21 F1          15.4440    22.2620   120.4070 F            1 BRF1397   0.0000
    22 C17          4.5350    26.8210   118.2480 C.ar         1 BRF1397   0.0000
    23 C18          3.2090    26.3060   117.9090 C.ar         1 BRF1397   0.0000
    24 C19          4.7150    28.2640   118.4240 C.ar         1 BRF1397   0.0000
    25 C20          2.1200    27.2310   117.7610 C.ar         1 BRF1397   0.0000
    26 C21          2.3080    28.6450   117.9360 C.ar         1 BRF1397   0.0000
    27 C22          3.6090    29.1650   118.2700 C.ar         1 BRF1397   0.0000
    28 F2           3.0190    25.1420   117.7580 F            1 BRF1397   0.0000
    29 H1           8.5645    20.0466   118.7699 H            1 BRF1397   0.0000
    30 H2           7.5440    21.1579   119.3946 H            1 BRF1397   0.0000
    31 H3           7.9095    21.1882   117.8033 H            1 BRF1397   0.0000
    32 H4           7.5741    23.4925   116.8049 H            1 BRF1397   0.0000
    33 H5           8.2580    25.2244   120.6419 H            1 BRF1397   0.0000
    34 H6          13.4424    20.8169   119.8938 H            1 BRF1397   0.0000
    35 H7          12.5849    25.6056   119.7989 H            1 BRF1397   0.0000
    36 H8           5.6343    24.9289   116.5728 H            1 BRF1397   0.0000
    37 H9           6.3104    26.6520   120.3836 H            1 BRF1397   0.0000
    38 H10         14.8306    24.7851   120.3047 H            1 BRF1397   0.0000
    39 H11          5.6187    28.6252   118.6540 H            1 BRF1397   0.0000
    40 H12          1.2110    26.8834   117.5311 H            1 BRF1397   0.0000
    41 H13          1.5343    29.2689   117.8257 H            1 BRF1397   0.0000
    42 H14          3.7407    30.1485   118.3939 H            1 BRF1397   0.0000
@<TRIPOS>BOND
     1    1    2       1
     2    2    3      ar
     3    2    4      ar
     4    3    5      ar
     5    3    7       1
     6    4    6       1
     7    4    8      ar
     8    5    9      ar
     9    6   12      ar
    10    6   13      ar
    11    7   10      ar
    12    7   11      ar
    13    8    9      ar
    14    8   14      ar
    15    9   15      ar
    16   10   16      ar
    17   11   17      ar
    18   14   18      ar
    19   15   19      ar
    20   16   20      ar
    21   17   20      ar
    22   18   19      ar
    23   18   21       1
    24   20   22       1
    25   22   23      ar
    26   22   24      ar
    27   23   25      ar
    28   23   28       1
    29   24   27      ar
    30   25   26      ar
    31   26   27      ar
    32    1   29       1
    33    1   30       1
    34    1   31       1
    35   10   32       1
    36   11   33       1
    37   27   42       1
    38   14   34       1
    39   15   35       1
    40   16   36       1
    41   17   37       1
    42   19   38       1
    43   24   39       1
    44   25   40       1
    45   26   41       1
@<TRIPOS>SUBSTRUCTURE
     1 BRF1397     1 GROUP             4 A     BRF     0 **** BRF A1397
