@<TRIPOS>MOLECULE
1dap_NDP_2_ligand
   73    77     1     0     0
SMALL
NO_CHARGES


@<TRIPOS>ATOM
     1 PA          16.7430    20.9720    40.4910 P.3          1 NDP400   0.0000
     2 O1A         15.8760    19.9860    39.8750 O.co2        1 NDP400   0.0000
     3 O2A         16.8170    20.9300    41.9640 O.co2        1 NDP400  -1.0000
     4 O5B         18.1120    20.6930    39.7570 O.3          1 NDP400   0.0000
     5 C5B         19.3800    21.3780    39.8080 C.3          1 NDP400   0.0000
     6 C4B         20.5290    20.3760    39.6900 C.3          1 NDP400   0.0000
     7 O4B         20.4510    19.3920    40.7990 O.3          1 NDP400   0.0000
     8 C3B         20.4450    19.4980    38.4440 C.3          1 NDP400   0.0000
     9 O3B         21.0070    20.1130    37.3550 O.3          1 NDP400   0.0000
    10 C2B         21.1030    18.1740    38.8490 C.3          1 NDP400   0.0000
    11 O2B         22.4550    18.1280    38.5370 O.3          1 NDP400   0.0000
    12 C1B         20.9820    18.1520    40.3650 C.3          1 NDP400   0.0000
    13 N9A         19.9500    17.2190    40.7600 N.pl3        1 NDP400   0.0000
    14 C8A         18.7050    17.0450    40.2950 C.2          1 NDP400   0.0000
    15 N7A         18.0550    16.0720    40.8770 N.2          1 NDP400   0.0000
    16 C5A         18.9740    15.5470    41.7400 C.ar         1 NDP400   0.0000
    17 C6A         18.8580    14.5930    42.7580 C.ar         1 NDP400   0.0000
    18 N6A         17.7330    13.9200    42.9110 N.pl3        1 NDP400   0.0000
    19 N1A         19.9130    14.4490    43.5900 N.ar         1 NDP400   0.0000
    20 C2A         21.0410    15.1650    43.5250 C.ar         1 NDP400   0.0000
    21 N3A         21.2570    16.1030    42.4760 N.ar         1 NDP400   0.0000
    22 C4A         20.1620    16.2370    41.6780 C.ar         1 NDP400   0.0000
    23 O3          16.3000    22.3590    39.9820 O.3          1 NDP400   0.0000
    24 PN          15.4930    22.8740    38.8150 P.3          1 NDP400   0.0000
    25 O1N         14.1330    23.0750    39.3320 O.co2        1 NDP400   0.0000
    26 O2N         15.7350    22.1750    37.5410 O.co2        1 NDP400  -1.0000
    27 O5D         15.8300    24.4220    38.6270 O.3          1 NDP400   0.0000
    28 C5D         16.9840    24.8210    37.9380 C.3          1 NDP400   0.0000
    29 C4D         17.1210    26.3350    37.8420 C.3          1 NDP400   0.0000
    30 O4D         16.3930    26.9070    36.7530 O.3          1 NDP400   0.0000
    31 C3D         16.9410    27.3040    39.0230 C.3          1 NDP400   0.0000
    32 O3D         18.1220    27.7530    39.5820 O.3          1 NDP400   0.0000
    33 C2D         16.1380    28.4470    38.4330 C.3          1 NDP400   0.0000
    34 O2D         16.8170    29.6890    38.5290 O.3          1 NDP400   0.0000
    35 C1D         16.2770    28.2900    36.9650 C.3          1 NDP400   0.0000
    36 N1N         14.9930    28.7560    36.4430 N.ar         1 NDP400   1.0000
    37 C2N         15.0590    29.9750    35.6380 C.ar         1 NDP400   0.0000
    38 C3N         13.9460    30.5390    35.1550 C.ar         1 NDP400   0.0000
    39 C7N         13.9840    31.7940    34.4800 C.2          1 NDP400   0.0000
    40 O7N         12.7860    32.3230    34.1550 O.2          1 NDP400   0.0000
    41 N7N         15.1440    32.4230    34.2210 N.am         1 NDP400   0.0000
    42 C4N         12.6890    29.9000    35.4700 C.ar         1 NDP400   0.0000
    43 C5N         12.6460    28.7060    36.1700 C.ar         1 NDP400   0.0000
    44 C6N         13.8170    28.1020    36.6760 C.ar         1 NDP400   0.0000
    45 P2B         23.1510    16.6900    38.2250 P.3          1 NDP400   0.0000
    46 O1X         23.1300    15.8830    39.4510 O.co2        1 NDP400   0.0000
    47 O2X         22.4270    16.0080    37.1390 O.co2        1 NDP400  -1.0000
    48 O3X         24.4190    17.0560    37.5840 O.co2        1 NDP400  -1.0000
    49 H5B1        19.4563    21.8667    40.6771 H            1 NDP400   0.0000
    50 H5B2        19.4328    22.0311    39.0526 H            1 NDP400   0.0000
    51 H4B         21.4068    20.8544    39.7154 H            1 NDP400   0.0000
    52 H3B         19.4806    19.3234    38.2452 H            1 NDP400   0.0000
    53 H5          20.5254    20.9698    37.1706 H            1 NDP400   0.0000
    54 H2B         20.6189    17.3987    38.4433 H            1 NDP400   0.0000
    55 H1B         21.8564    17.9475    40.8049 H            1 NDP400   0.0000
    56 H8A         18.3097    17.6081    39.5693 H            1 NDP400   0.0000
    57 H6A1        17.6527    13.2391    43.6390 H            1 NDP400   0.0000
    58 H6A2        16.9609    14.0910    42.2990 H            1 NDP400   0.0000
    59 H2A         21.7442    15.0393    44.2248 H            1 NDP400   0.0000
    60 H5D1        16.9497    24.4441    37.0124 H            1 NDP400   0.0000
    61 H5D2        17.7834    24.4577    38.4165 H            1 NDP400   0.0000
    62 H4D         18.0764    26.4658    37.5773 H            1 NDP400   0.0000
    63 H3D         16.3960    26.8555    39.7313 H            1 NDP400   0.0000
    64 H16         17.9805    27.9410    40.5539 H            1 NDP400   0.0000
    65 H2D         15.1895    28.4795    38.7480 H            1 NDP400   0.0000
    66 H18         16.2513    30.4100    38.1287 H            1 NDP400   0.0000
    67 H1D         17.0518    28.8024    36.5948 H            1 NDP400   0.0000
    68 H2N         15.9472    30.3924    35.4461 H            1 NDP400   0.0000
    69 H7N1        15.1404    33.3028    33.7457 H            1 NDP400   0.0000
    70 H7N2        16.0102    32.0109    34.5037 H            1 NDP400   0.0000
    71 H4N         11.8340    30.3280    35.1770 H            1 NDP400   0.0000
    72 H5N         11.7634    28.2606    36.3207 H            1 NDP400   0.0000
    73 H6N         13.7870    27.2387    37.1797 H            1 NDP400   0.0000
@<TRIPOS>BOND
     1    1    2      ar
     2    1    3      ar
     3    1    4       1
     4    1   23       1
     5    4    5       1
     6    5    6       1
     7    6    7       1
     8    6    8       1
     9    7   12       1
    10    8    9       1
    11    8   10       1
    12   10   11       1
    13   10   12       1
    14   11   45       1
    15   12   13       1
    16   13   14       1
    17   13   22       1
    18   14   15       2
    19   15   16       1
    20   16   17      ar
    21   16   22      ar
    22   17   18       1
    23   17   19      ar
    24   19   20      ar
    25   20   21      ar
    26   21   22      ar
    27   23   24       1
    28   24   25      ar
    29   24   26      ar
    30   24   27       1
    31   27   28       1
    32   28   29       1
    33   29   30       1
    34   29   31       1
    35   30   35       1
    36   31   32       1
    37   31   33       1
    38   33   34       1
    39   33   35       1
    40   35   36       1
    41   36   37      ar
    42   36   44      ar
    43   37   38      ar
    44   38   39       1
    45   38   42      ar
    46   39   40       2
    47   39   41      am
    48   42   43      ar
    49   43   44      ar
    50   45   46      ar
    51   45   47      ar
    52   45   48      ar
    53   43   72       1
    54    5   49       1
    55    5   50       1
    56    6   51       1
    57    8   52       1
    58    9   53       1
    59   10   54       1
    60   12   55       1
    61   14   56       1
    62   18   57       1
    63   18   58       1
    64   20   59       1
    65   44   73       1
    66   28   60       1
    67   28   61       1
    68   29   62       1
    69   31   63       1
    70   32   64       1
    71   33   65       1
    72   34   66       1
    73   35   67       1
    74   37   68       1
    75   41   69       1
    76   41   70       1
    77   42   71       1
@<TRIPOS>SUBSTRUCTURE
     1 NDP400      1 GROUP             4 B     NDP     0 **** NDP B 400
