@<TRIPOS>MOLECULE
3otw_COA_6_ligand
   80    82     1     0     0
SMALL
NO_CHARGES


@<TRIPOS>ATOM
     1 N1A        -24.5350   -36.3410   -15.6200 N.ar         1 COA158   0.0000
     2 C2A        -25.7960   -35.8350   -15.3360 C.ar         1 COA158   0.0000
     3 N3A        -25.8980   -34.6310   -14.6870 N.ar         1 COA158   0.0000
     4 C4A        -24.7720   -33.9380   -14.3410 C.ar         1 COA158   0.0000
     5 C5A        -23.4940   -34.4430   -14.6070 C.ar         1 COA158   0.0000
     6 C6A        -23.3800   -35.6700   -15.2570 C.ar         1 COA158   0.0000
     7 N6A        -22.1740   -36.2050   -15.4420 N.pl3        1 COA158   0.0000
     8 N7A        -22.5720   -33.5740   -14.1340 N.2          1 COA158   0.0000
     9 C8A        -23.2470   -32.5350   -13.5710 C.2          1 COA158   0.0000
    10 N9A        -24.6030   -32.7480   -13.6960 N.pl3        1 COA158   0.0000
    11 C1B        -25.6830   -31.9330   -13.1430 C.3          1 COA158   0.0000
    12 C2B        -25.3440   -31.4620   -11.7210 C.3          1 COA158   0.0000
    13 O2B        -25.7160   -32.3440   -10.6790 O.3          1 COA158   0.0000
    14 C3B        -26.0760   -30.1380   -11.6660 C.3          1 COA158   0.0000
    15 O3B        -27.4640   -30.4460   -11.6360 O.3          1 COA158   0.0000
    16 P3B        -28.6520   -29.4790   -11.1060 P.3          1 COA158   0.0000
    17 O7A        -29.1290   -30.0220    -9.7620 O.co2        1 COA158   0.0000
    18 O8A        -28.1570   -28.0600   -10.8570 O.co2        1 COA158  -1.0000
    19 O9A        -29.7160   -29.4750   -12.1870 O.co2        1 COA158  -1.0000
    20 C4B        -25.7050   -29.5790   -13.0340 C.3          1 COA158   0.0000
    21 O4B        -25.7420   -30.7290   -13.8910 O.3          1 COA158   0.0000
    22 C5B        -24.3030   -28.9440   -13.0640 C.3          1 COA158   0.0000
    23 O5B        -24.2150   -27.6760   -12.4440 O.3          1 COA158   0.0000
    24 P1A        -23.1340   -27.3440   -11.2650 P.3          1 COA158   0.0000
    25 O1A        -23.7760   -26.4700   -10.2060 O.co2        1 COA158   0.0000
    26 O2A        -21.8860   -26.6690   -11.7730 O.co2        1 COA158  -1.0000
    27 O3A        -22.8030   -28.7830   -10.6680 O.3          1 COA158   0.0000
    28 P2A        -23.3360   -29.1070    -9.2100 P.3          1 COA158   0.0000
    29 O4A        -23.6500   -30.5850    -9.2390 O.co2        1 COA158   0.0000
    30 O5A        -24.5640   -28.3770    -8.7080 O.co2        1 COA158  -1.0000
    31 O6A        -22.0300   -28.6860    -8.3880 O.3          1 COA158   0.0000
    32 CBP        -20.9890   -27.4550    -6.6280 C.3          1 COA158   0.0000
    33 CCP        -21.7940   -27.3780    -7.9140 C.3          1 COA158   0.0000
    34 CDP        -19.7080   -28.2530    -6.9130 C.3          1 COA158   0.0000
    35 CEP        -21.7970   -28.2450    -5.5820 C.3          1 COA158   0.0000
    36 CAP        -20.7040   -26.0260    -6.1570 C.3          1 COA158   0.0000
    37 OAP        -21.9030   -25.2950    -6.0510 O.3          1 COA158   0.0000
    38 C9P        -20.0160   -25.9610    -4.8030 C.2          1 COA158   0.0000
    39 O9P        -18.6540   -26.1160    -4.7420 O.2          1 COA158   0.0000
    40 N8P        -20.7220   -25.7190    -3.6810 N.am         1 COA158   0.0000
    41 C7P        -20.0580   -25.6750    -2.3860 C.3          1 COA158   0.0000
    42 C6P        -19.9770   -24.2360    -1.8600 C.3          1 COA158   0.0000
    43 C5P        -18.8190   -23.5060    -2.5050 C.2          1 COA158   0.0000
    44 O5P        -17.6490   -23.8080    -2.2280 O.2          1 COA158   0.0000
    45 N4P        -19.1330   -22.5160    -3.3620 N.am         1 COA158   0.0000
    46 C3P        -18.0320   -21.7210    -3.9240 C.3          1 COA158   0.0000
    47 C2P        -17.5470   -22.4810    -5.1550 C.3          1 COA158   0.0000
    48 S1P        -16.3710   -21.5230    -6.1460 S.3          1 COA158   0.0000
    49 H2A        -26.6173   -36.3404   -15.6005 H            1 COA158   0.0000
    50 H6A1       -21.3554   -35.6987   -15.1707 H            1 COA158   0.0000
    51 H6A2       -22.0873   -37.1129   -15.8522 H            1 COA158   0.0000
    52 H8A        -22.8248   -31.7405   -13.1345 H            1 COA158   0.0000
    53 H1B        -26.5560   -32.4201   -13.1671 H            1 COA158   0.0000
    54 H2B        -24.3606   -31.2902   -11.6633 H            1 COA158   0.0000
    55 H7         -25.4539   -31.9491    -9.7985 H            1 COA158   0.0000
    56 H3B        -25.7835   -29.5553   -10.9078 H            1 COA158   0.0000
    57 H4B        -26.3892   -28.9114   -13.3277 H            1 COA158   0.0000
    58 H5B1       -24.0272   -28.8431   -14.0199 H            1 COA158   0.0000
    59 H5B2       -23.6707   -29.5630   -12.5982 H            1 COA158   0.0000
    60 HCP1       -22.6668   -26.9233    -7.7364 H            1 COA158   0.0000
    61 HCP2       -21.2819   -26.8604    -8.5995 H            1 COA158   0.0000
    62 HDP1       -19.1618   -28.3161    -6.0777 H            1 COA158   0.0000
    63 HDP2       -19.9501   -29.1723    -7.2232 H            1 COA158   0.0000
    64 HDP3       -19.1781   -27.7902    -7.6236 H            1 COA158   0.0000
    65 HEP1       -21.2752   -28.3014    -4.7308 H            1 COA158   0.0000
    66 HEP2       -22.6653   -27.7795    -5.4104 H            1 COA158   0.0000
    67 HEP3       -21.9753   -29.1671    -5.9254 H            1 COA158   0.0000
    68 HAP        -20.1180   -25.5793    -6.8331 H            1 COA158   0.0000
    69 H21        -21.7207   -24.3280    -6.2291 H            1 COA158   0.0000
    70 H8P        -21.7090   -25.5686    -3.7382 H            1 COA158   0.0000
    71 H7P1       -19.1324   -26.0416    -2.4802 H            1 COA158   0.0000
    72 H7P2       -20.5729   -26.2329    -1.7351 H            1 COA158   0.0000
    73 H6P1       -19.8449   -24.2539    -0.8689 H            1 COA158   0.0000
    74 H6P2       -20.8288   -23.7580    -2.0742 H            1 COA158   0.0000
    75 H4P        -20.0839   -22.3279    -3.6079 H            1 COA158   0.0000
    76 H3P1       -17.2922   -21.6324    -3.2570 H            1 COA158   0.0000
    77 H3P2       -18.3576   -20.8118    -4.1834 H            1 COA158   0.0000
    78 H2P1       -18.3375   -22.7059    -5.7247 H            1 COA158   0.0000
    79 H2P2       -17.1011   -23.3245    -4.8556 H            1 COA158   0.0000
    80 H1P        -16.0847   -22.0629    -6.9376 H            1 COA158   0.0000
@<TRIPOS>BOND
     1    1    2      ar
     2    1    6      ar
     3    2    3      ar
     4    3    4      ar
     5    4    5      ar
     6    4   10       1
     7    5    6      ar
     8    5    8       1
     9    6    7       1
    10    8    9       2
    11    9   10       1
    12   10   11       1
    13   11   12       1
    14   11   21       1
    15   12   13       1
    16   12   14       1
    17   14   15       1
    18   14   20       1
    19   15   16       1
    20   16   17      ar
    21   16   18      ar
    22   16   19      ar
    23   20   21       1
    24   20   22       1
    25   22   23       1
    26   23   24       1
    27   24   25      ar
    28   24   26      ar
    29   24   27       1
    30   27   28       1
    31   28   29      ar
    32   28   30      ar
    33   28   31       1
    34   31   33       1
    35   32   33       1
    36   32   34       1
    37   32   35       1
    38   32   36       1
    39   36   37       1
    40   36   38       1
    41   38   39       2
    42   38   40      am
    43   40   41       1
    44   41   42       1
    45   42   43       1
    46   43   44       2
    47   43   45      am
    48   45   46       1
    49   46   47       1
    50   47   48       1
    51    2   49       1
    52    7   50       1
    53    7   51       1
    54    9   52       1
    55   11   53       1
    56   12   54       1
    57   13   55       1
    58   14   56       1
    59   48   80       1
    60   47   79       1
    61   20   57       1
    62   22   58       1
    63   22   59       1
    64   47   78       1
    65   46   77       1
    66   33   60       1
    67   33   61       1
    68   34   62       1
    69   34   63       1
    70   34   64       1
    71   35   65       1
    72   35   66       1
    73   35   67       1
    74   36   68       1
    75   37   69       1
    76   40   70       1
    77   41   71       1
    78   41   72       1
    79   42   73       1
    80   42   74       1
    81   45   75       1
    82   46   76       1
@<TRIPOS>SUBSTRUCTURE
     1 COA158      1 GROUP             4 F     COA     0 **** COA F 158
