@<TRIPOS>MOLECULE
2pwy_SAH_1_ligand
   46    48     1     0     0
SMALL
NO_CHARGES


@<TRIPOS>ATOM
     1 N           10.1850    38.6780   -15.4820 N.4          1 SAH501   1.0000
     2 CA          10.3190    40.1330   -15.1460 C.3          1 SAH501   0.0000
     3 CB          11.1400    40.8640   -16.2010 C.3          1 SAH501   0.0000
     4 CG          12.6340    40.5440   -16.1020 C.3          1 SAH501   0.0000
     5 SD          13.5710    41.6390   -17.2020 S.3          1 SAH501   0.0000
     6 C            8.9300    40.7280   -15.0130 C.2          1 SAH501   0.0000
     7 O            7.9350    40.0430   -15.2950 O.co2        1 SAH501   0.0000
     8 OXT          8.7800    41.8850   -14.6050 O.co2        1 SAH501  -1.0000
     9 C5'         15.2050    40.9870   -16.7700 C.3          1 SAH501   0.0000
    10 C4'         15.7390    41.5860   -15.4640 C.3          1 SAH501   0.0000
    11 O4'         16.7920    40.7740   -14.9870 O.3          1 SAH501   0.0000
    12 C3'         16.3170    43.0020   -15.5810 C.3          1 SAH501   0.0000
    13 O3'         15.6870    43.8200   -14.6000 O.3          1 SAH501   0.0000
    14 C2'         17.8120    42.8330   -15.3070 C.3          1 SAH501   0.0000
    15 O2'         18.3800    43.8980   -14.5790 O.3          1 SAH501   0.0000
    16 C1'         17.8270    41.5930   -14.4490 C.3          1 SAH501   0.0000
    17 N9          19.0210    40.7330   -14.4910 N.pl3        1 SAH501   0.0000
    18 C8          19.6850    40.2980   -15.6030 C.2          1 SAH501   0.0000
    19 N7          20.6630    39.4600   -15.1900 N.2          1 SAH501   0.0000
    20 C5          20.6040    39.3150   -13.8480 C.ar         1 SAH501   0.0000
    21 C6          21.3640    38.5780   -12.9320 C.ar         1 SAH501   0.0000
    22 N6          22.3800    37.8000   -13.3370 N.pl3        1 SAH501   0.0000
    23 N1          21.0290    38.6660   -11.5870 N.ar         1 SAH501   0.0000
    24 C2          19.9920    39.4610   -11.1620 C.ar         1 SAH501   0.0000
    25 N3          19.2590    40.1910   -12.0770 N.ar         1 SAH501   0.0000
    26 C4          19.5620    40.1140   -13.3950 C.ar         1 SAH501   0.0000
    27 H1          10.5811    38.1282   -14.7466 H            1 SAH501   0.0000
    28 H2           9.2175    38.4477   -15.5863 H            1 SAH501   0.0000
    29 HA          10.7862    40.2149   -14.2657 H            1 SAH501   0.0000
    30 HB1         11.0137    41.8487   -16.0809 H            1 SAH501   0.0000
    31 HB2         10.8129    40.5940   -17.1066 H            1 SAH501   0.0000
    32 HG1         12.7883    39.5930   -16.3701 H            1 SAH501   0.0000
    33 HG2         12.9406    40.6786   -15.1597 H            1 SAH501   0.0000
    34 H5'1        15.8437    41.2030   -17.5085 H            1 SAH501   0.0000
    35 H5'2        15.1389    39.9946   -16.6661 H            1 SAH501   0.0000
    36 H4'         15.0033    41.5922   -14.7867 H            1 SAH501   0.0000
    37 H3'         16.1656    43.3705   -16.4982 H            1 SAH501   0.0000
    38 H12         15.8683    43.4482   -13.6896 H            1 SAH501   0.0000
    39 H2'         18.3128    42.6799   -16.1589 H            1 SAH501   0.0000
    40 H14         17.9227    43.9776   -13.6932 H            1 SAH501   0.0000
    41 H1'         17.6135    41.8323   -13.5018 H            1 SAH501   0.0000
    42 H16         19.4846    40.5526   -16.5491 H            1 SAH501   0.0000
    43 H17         22.9107    37.2814   -12.6666 H            1 SAH501   0.0000
    44 H18         22.6063    37.7389   -14.3092 H            1 SAH501   0.0000
    45 H19         19.7677    39.5111   -10.1888 H            1 SAH501   0.0000
    46 H20         10.6671    38.4876   -16.3372 H            1 SAH501   0.0000
@<TRIPOS>BOND
     1    1    2       1
     2    2    3       1
     3    2    6       1
     4    3    4       1
     5    4    5       1
     6    5    9       1
     7    6    7      ar
     8    6    8      ar
     9    9   10       1
    10   10   11       1
    11   10   12       1
    12   11   16       1
    13   12   13       1
    14   12   14       1
    15   14   15       1
    16   14   16       1
    17   16   17       1
    18   17   18       1
    19   17   26       1
    20   18   19       2
    21   19   20       1
    22   20   21      ar
    23   20   26      ar
    24   21   22       1
    25   21   23      ar
    26   23   24      ar
    27   24   25      ar
    28   25   26      ar
    29    1   27       1
    30    1   28       1
    31    2   29       1
    32    3   30       1
    33    3   31       1
    34    4   32       1
    35    4   33       1
    36    1   46       1
    37    9   34       1
    38    9   35       1
    39   10   36       1
    40   12   37       1
    41   13   38       1
    42   14   39       1
    43   15   40       1
    44   16   41       1
    45   18   42       1
    46   22   43       1
    47   22   44       1
    48   24   45       1
@<TRIPOS>SUBSTRUCTURE
     1 SAH501      1 GROUP             4 A     SAH     0 **** SAH A 501
