@<TRIPOS>MOLECULE
2c7g_FAD_1_ligand
   84    89     1     0     0
SMALL
NO_CHARGES


@<TRIPOS>ATOM
     1 PA          54.3470     4.7970     6.2990 P.3          1 FAD501   0.0000
     2 O1A         54.5780     6.0750     7.0670 O.co2        1 FAD501   0.0000
     3 O2A         53.5900     4.8840     4.9850 O.co2        1 FAD501  -1.0000
     4 O5B         53.6340     3.7060     7.2150 O.3          1 FAD501   0.0000
     5 C5B         54.0770     3.5030     8.5530 C.3          1 FAD501   0.0000
     6 C4B         52.9240     2.9000     9.3680 C.3          1 FAD501   0.0000
     7 O4B         53.4390     2.5260    10.6420 O.3          1 FAD501   0.0000
     8 C3B         51.8170     3.9260     9.6470 C.3          1 FAD501   0.0000
     9 O3B         50.5450     3.3910     9.3150 O.3          1 FAD501   0.0000
    10 C2B         51.9350     4.1860    11.1480 C.3          1 FAD501   0.0000
    11 O2B         50.7140     4.5230    11.7920 O.3          1 FAD501   0.0000
    12 C1B         52.5240     2.8740    11.6500 C.3          1 FAD501   0.0000
    13 N9A         53.2560     2.9790    12.9240 N.pl3        1 FAD501   0.0000
    14 C8A         54.2190     3.8950    13.2560 C.2          1 FAD501   0.0000
    15 N7A         54.6290     3.6310    14.5190 N.2          1 FAD501   0.0000
    16 C5A         53.9450     2.5620    14.9900 C.ar         1 FAD501   0.0000
    17 C6A         53.9640     1.8840    16.2130 C.ar         1 FAD501   0.0000
    18 N6A         54.8250     2.2450    17.1570 N.pl3        1 FAD501   0.0000
    19 N1A         53.1420     0.7920    16.4140 N.ar         1 FAD501   0.0000
    20 C2A         52.2750     0.4030    15.4020 C.ar         1 FAD501   0.0000
    21 N3A         52.2650     1.0870    14.1950 N.ar         1 FAD501   0.0000
    22 C4A         53.0820     2.1440    13.9930 C.ar         1 FAD501   0.0000
    23 N1          54.9610     8.6990    -2.7690 N.2          1 FAD501   0.0000
    24 C2          54.4820     8.5410    -4.0470 C.2          1 FAD501   0.0000
    25 O2          54.9120     7.6100    -4.7410 O.2          1 FAD501   0.0000
    26 N3          53.5210     9.4230    -4.5230 N.pl3        1 FAD501   0.0000
    27 C4          53.0310    10.4510    -3.7190 C.2          1 FAD501   0.0000
    28 O4          52.1710    11.2190    -4.1560 O.2          1 FAD501   0.0000
    29 C4X         53.5140    10.6120    -2.4140 C.2          1 FAD501   0.0000
    30 N5          53.0400    11.6300    -1.5950 N.2          1 FAD501   0.0000
    31 C5X         53.5470    11.7630    -0.3050 C.ar         1 FAD501   0.0000
    32 C6          53.0970    12.7890     0.5280 C.ar         1 FAD501   0.0000
    33 C7          53.6020    12.9250     1.8210 C.ar         1 FAD501   0.0000
    34 C7M         53.1520    14.1150     2.6440 C.3          1 FAD501   0.0000
    35 C8          54.5830    12.0330     2.2720 C.ar         1 FAD501   0.0000
    36 C8M         55.3100    12.2430     3.5630 C.3          1 FAD501   0.0000
    37 C9          55.0460    11.0210     1.4460 C.ar         1 FAD501   0.0000
    38 C9A         54.5270    10.8690     0.1480 C.ar         1 FAD501   0.0000
    39 N10         54.9890     9.8480    -0.6830 N.pl3        1 FAD501   0.0000
    40 C10         54.4820     9.7250    -1.9600 C.2          1 FAD501   0.0000
    41 C1'         56.0260     8.8480    -0.2330 C.3          1 FAD501   0.0000
    42 C2'         55.3990     7.6350     0.4580 C.3          1 FAD501   0.0000
    43 O2'         54.3610     8.0990     1.3120 O.3          1 FAD501   0.0000
    44 C3'         56.4460     6.8190     1.2340 C.3          1 FAD501   0.0000
    45 O3'         57.4210     6.3360     0.3320 O.3          1 FAD501   0.0000
    46 C4'         55.8540     5.6070     1.9570 C.3          1 FAD501   0.0000
    47 O4'         54.5660     5.8800     2.5120 O.3          1 FAD501   0.0000
    48 C5'         56.7790     5.1050     3.0670 C.3          1 FAD501   0.0000
    49 O5'         56.1980     3.8880     3.5030 O.3          1 FAD501   0.0000
    50 P           56.5070     3.2950     4.9610 P.3          1 FAD501   0.0000
    51 O1P         55.8870     1.9400     4.9840 O.co2        1 FAD501   0.0000
    52 O2P         57.9700     3.2860     5.2810 O.co2        1 FAD501  -1.0000
    53 O3P         55.8530     4.2780     6.0530 O.3          1 FAD501   0.0000
    54 H5B1        54.3503     4.3777     8.9532 H            1 FAD501   0.0000
    55 H5B2        54.8562     2.8762     8.5579 H            1 FAD501   0.0000
    56 H4B         52.5471     2.1018     8.8981 H            1 FAD501   0.0000
    57 H3B         51.9852     4.7676     9.1338 H            1 FAD501   0.0000
    58 H5          50.3740     2.5727     9.8637 H            1 FAD501   0.0000
    59 H2B         52.5971     4.9198    11.3005 H            1 FAD501   0.0000
    60 H7          50.0603     3.7747    11.6796 H            1 FAD501   0.0000
    61 H1B         51.8080     2.1794    11.7202 H            1 FAD501   0.0000
    62 H8A         54.5593     4.6294    12.6688 H            1 FAD501   0.0000
    63 H6A1        54.8396     1.7610    18.0320 H            1 FAD501   0.0000
    64 H6A2        55.4589     3.0009    16.9930 H            1 FAD501   0.0000
    65 H2A         51.6573    -0.3707    15.5431 H            1 FAD501   0.0000
    66 H13         53.1755     9.3193    -5.4557 H            1 FAD501   0.0000
    67 H14         52.4070    13.4316     0.1949 H            1 FAD501   0.0000
    68 H7M1        53.5905    14.0841     3.5422 H            1 FAD501   0.0000
    69 H7M2        53.4097    14.9604     2.1762 H            1 FAD501   0.0000
    70 H7M3        52.1588    14.0859     2.7567 H            1 FAD501   0.0000
    71 H8M1        55.9647    11.4999     3.7016 H            1 FAD501   0.0000
    72 H8M2        55.7976    13.1155     3.5329 H            1 FAD501   0.0000
    73 H8M3        54.6535    12.2539     4.3173 H            1 FAD501   0.0000
    74 H21         55.7533    10.3953     1.7750 H            1 FAD501   0.0000
    75 H1'1        56.6493     9.2967     0.4074 H            1 FAD501   0.0000
    76 H1'2        56.5385     8.5339    -1.0322 H            1 FAD501   0.0000
    77 H2'         54.9939     7.0464    -0.2417 H            1 FAD501   0.0000
    78 H25         54.2703     7.4808     2.0927 H            1 FAD501   0.0000
    79 H3'         56.8896     7.4133     1.9049 H            1 FAD501   0.0000
    80 H27         58.1613     7.0036     0.2525 H            1 FAD501   0.0000
    81 H4'         55.7501     4.8711     1.2879 H            1 FAD501   0.0000
    82 H29         54.4300     5.3206     3.3297 H            1 FAD501   0.0000
    83 H5'1        56.8184     5.7648     3.8174 H            1 FAD501   0.0000
    84 H5'2        57.7008     4.9478     2.7126 H            1 FAD501   0.0000
@<TRIPOS>BOND
     1    1    2      ar
     2    1    3      ar
     3    1    4       1
     4    1   53       1
     5    4    5       1
     6    5    6       1
     7    6    7       1
     8    6    8       1
     9    7   12       1
    10    8    9       1
    11    8   10       1
    12   10   11       1
    13   10   12       1
    14   12   13       1
    15   13   14       1
    16   13   22       1
    17   14   15       2
    18   15   16       1
    19   16   17      ar
    20   16   22      ar
    21   17   18       1
    22   17   19      ar
    23   19   20      ar
    24   20   21      ar
    25   21   22      ar
    26   23   24       1
    27   23   40       2
    28   24   25       2
    29   24   26       1
    30   26   27       1
    31   27   28       2
    32   27   29       1
    33   29   30       2
    34   29   40       1
    35   30   31       1
    36   31   32      ar
    37   31   38      ar
    38   32   33      ar
    39   33   34       1
    40   33   35      ar
    41   35   36       1
    42   35   37      ar
    43   37   38      ar
    44   38   39       1
    45   39   40       1
    46   39   41       1
    47   41   42       1
    48   42   43       1
    49   42   44       1
    50   44   45       1
    51   44   46       1
    52   46   47       1
    53   46   48       1
    54   48   49       1
    55   49   50       1
    56   50   51      ar
    57   50   52      ar
    58   50   53       1
    59   48   84       1
    60    5   54       1
    61    5   55       1
    62    6   56       1
    63    8   57       1
    64    9   58       1
    65   10   59       1
    66   11   60       1
    67   12   61       1
    68   14   62       1
    69   18   63       1
    70   18   64       1
    71   20   65       1
    72   26   66       1
    73   32   67       1
    74   34   68       1
    75   34   69       1
    76   34   70       1
    77   36   71       1
    78   36   72       1
    79   36   73       1
    80   37   74       1
    81   41   75       1
    82   41   76       1
    83   42   77       1
    84   43   78       1
    85   44   79       1
    86   45   80       1
    87   46   81       1
    88   47   82       1
    89   48   83       1
@<TRIPOS>SUBSTRUCTURE
     1 FAD501      1 GROUP             4 A     FAD     0 **** FAD A 501
