@<TRIPOS>MOLECULE
2vn9_GVD_1_ligand
   49    53     1     0     0
SMALL
NO_CHARGES


@<TRIPOS>ATOM
     1 CAL          9.3650    28.1800    48.5060 C.3          1 GVD1314   0.0000
     2 CAM          8.9270    29.6420    48.6050 C.3          1 GVD1314   0.0000
     3 CBB          9.9560    29.0780    49.5860 C.3          1 GVD1314   0.0000
     4 CAX         11.4500    29.4220    49.3120 C.2          1 GVD1314   0.0000
     5 CAK         11.9690    30.0550    48.2450 C.2          1 GVD1314   0.0000
     6 NAS         12.4340    29.0800    50.1480 N.pl3        1 GVD1314   0.0000
     7 NAN         13.4780    29.4790    49.6500 N.2          1 GVD1314   0.0000
     8 CAV         13.2900    30.0620    48.4980 C.2          1 GVD1314   0.0000
     9 NAR         14.3640    30.5630    47.8740 N.pl3        1 GVD1314   0.0000
    10 C6          14.4550    31.2260    46.7120 C.ar         1 GVD1314   0.0000
    11 N1          13.3860    31.3570    45.9300 N.ar         1 GVD1314   0.0000
    12 C5          15.7040    31.7750    46.2770 C.ar         1 GVD1314   0.0000
    13 CAJ         16.8910    31.6950    47.0370 C.ar         1 GVD1314   0.0000
    14 CAD         18.0850    32.2510    46.5690 C.ar         1 GVD1314   0.0000
    15 CAC         18.1120    32.9140    45.3330 C.ar         1 GVD1314   0.0000
    16 CAI         16.9420    32.9990    44.5710 C.ar         1 GVD1314   0.0000
    17 C4          15.7480    32.4270    45.0410 C.ar         1 GVD1314   0.0000
    18 N3          14.6060    32.5120    44.3140 N.ar         1 GVD1314   1.0000
    19 C2          13.4460    31.9860    44.7430 C.ar         1 GVD1314   0.0000
    20 NAQ         12.3730    32.1330    43.9680 N.pl3        1 GVD1314   0.0000
    21 CAU         11.1370    31.6490    44.1840 C.ar         1 GVD1314   0.0000
    22 CAG         10.8750    30.2980    44.4500 C.ar         1 GVD1314   0.0000
    23 CAE          9.5600    29.8560    44.6370 C.ar         1 GVD1314   0.0000
    24 CAB          6.5580    29.8330    46.0280 C.1          1 GVD1314   0.0000
    25 NAA          6.1250    29.4070    47.0060 N.1          1 GVD1314   0.0000
    26 CAF          8.7540    32.0750    44.2320 C.ar         1 GVD1314   0.0000
    27 CAH         10.0610    32.5340    44.0580 C.ar         1 GVD1314   0.0000
    28 CA0          7.0010    30.2740    44.6930 C.3          1 GVD1314   0.0000
    29 CAT          8.4850    30.7400    44.5380 C.ar         1 GVD1314   0.0000
    30 HAL1         9.9332    27.8794    47.7400 H            1 GVD1314   0.0000
    31 HAL2         8.7291    27.4498    48.7560 H            1 GVD1314   0.0000
    32 HAM1         8.0056    29.8683    48.9210 H            1 GVD1314   0.0000
    33 HAM2         9.2097    30.2978    47.9050 H            1 GVD1314   0.0000
    34 HBB          9.6723    28.9271    50.5329 H            1 GVD1314   0.0000
    35 HAK         11.4879    30.4306    47.4529 H            1 GVD1314   0.0000
    36 HAR         15.2328    30.4205    48.3482 H            1 GVD1314   0.0000
    37 HAJ         16.8774    31.2334    47.9240 H            1 GVD1314   0.0000
    38 HAD         18.9195    32.1762    47.1149 H            1 GVD1314   0.0000
    39 HAC         18.9614    33.3228    44.9991 H            1 GVD1314   0.0000
    40 HAI         16.9555    33.4687    43.6883 H            1 GVD1314   0.0000
    41 HAQ         12.5009    32.6636    43.1301 H            1 GVD1314   0.0000
    42 HAG         11.6315    29.6464    44.5065 H            1 GVD1314   0.0000
    43 HAE          9.3886    28.8929    44.8445 H            1 GVD1314   0.0000
    44 HAF          7.9935    32.7171    44.1352 H            1 GVD1314   0.0000
    45 HAH         10.2281    33.4962    43.8431 H            1 GVD1314   0.0000
    46 HA01         6.4175    31.0397    44.4224 H            1 GVD1314   0.0000
    47 HA02         6.8606    29.5094    44.0639 H            1 GVD1314   0.0000
    48 HAS         12.3362    28.5914    51.0150 H            1 GVD1314   0.0000
    49 H20         14.6279    32.9808    43.4310 H            1 GVD1314   0.0000
@<TRIPOS>BOND
     1    1    2       1
     2    1    3       1
     3    2    3       1
     4    3    4       1
     5    4    5       2
     6    4    6       1
     7    5    8       1
     8    6    7       1
     9    7    8       2
    10    8    9       1
    11    9   10       1
    12   10   11      ar
    13   10   12      ar
    14   11   19      ar
    15   12   13      ar
    16   12   17      ar
    17   13   14      ar
    18   14   15      ar
    19   15   16      ar
    20   16   17      ar
    21   17   18      ar
    22   18   19      ar
    23   19   20       1
    24   20   21       1
    25   21   22      ar
    26   21   27      ar
    27   22   23      ar
    28   23   29      ar
    29   24   25       3
    30   24   28       1
    31   26   27      ar
    32   26   29      ar
    33   28   29       1
    34    1   30       1
    35    1   31       1
    36    2   32       1
    37    2   33       1
    38    3   34       1
    39    5   35       1
    40   28   47       1
    41    9   36       1
    42   13   37       1
    43   14   38       1
    44   15   39       1
    45   16   40       1
    46   20   41       1
    47   22   42       1
    48   23   43       1
    49   26   44       1
    50   27   45       1
    51   28   46       1
    52    6   48       1
    53   18   49       1
@<TRIPOS>SUBSTRUCTURE
     1 GVD1314     1 GROUP             4 A     GVD     0 **** GVD A1314
