@<TRIPOS>MOLECULE
3wgn_GSP_2_ligand
   44    46     1     0     0
SMALL
NO_CHARGES


@<TRIPOS>ATOM
     1 PG         -27.8840    -6.4200   -30.1300 P.3          1 GSP401   0.0000
     2 O3B        -26.8430    -5.8730   -31.2190 O.3          1 GSP401   0.0000
     3 S1G        -29.3250    -5.6370   -30.5990 S.2          1 GSP401   0.0000
     4 O2G        -27.8510    -7.9840   -30.0530 O.co2        1 GSP401  -1.0000
     5 O3G        -27.5100    -5.8820   -28.7450 O.co2        1 GSP401  -1.0000
     6 PB         -25.4590    -6.6360   -31.3940 P.3          1 GSP401   0.0000
     7 O1B        -24.5680    -6.1820   -30.3150 O.co2        1 GSP401   0.0000
     8 O2B        -25.6440    -8.0900   -31.5360 O.co2        1 GSP401  -1.0000
     9 PA         -25.0160    -6.7700   -34.1340 P.3          1 GSP401   0.0000
    10 O1A        -24.2460    -8.0380   -34.0530 O.co2        1 GSP401   0.0000
    11 O2A        -26.4330    -7.0240   -34.4760 O.co2        1 GSP401  -1.0000
    12 O3A        -24.8960    -5.9920   -32.7440 O.3          1 GSP401   0.0000
    13 O5'        -24.2680    -5.7500   -35.1160 O.3          1 GSP401   0.0000
    14 C5'        -24.5350    -4.3680   -35.0460 C.3          1 GSP401   0.0000
    15 C4'        -23.9810    -3.6970   -36.2940 C.3          1 GSP401   0.0000
    16 O4'        -22.8790    -4.4080   -36.8280 O.3          1 GSP401   0.0000
    17 C3'        -25.0330    -3.6330   -37.3690 C.3          1 GSP401   0.0000
    18 O3'        -25.4780    -2.3040   -37.4440 O.3          1 GSP401   0.0000
    19 C2'        -24.3360    -4.0790   -38.6410 C.3          1 GSP401   0.0000
    20 O2'        -23.9600    -2.9590   -39.4000 O.3          1 GSP401   0.0000
    21 C1'        -23.0340    -4.6850   -38.2060 C.3          1 GSP401   0.0000
    22 N9         -22.9800    -6.1450   -38.3680 N.pl3        1 GSP401   0.0000
    23 C8         -23.7120    -7.1080   -37.7380 C.2          1 GSP401   0.0000
    24 N7         -23.2850    -8.3350   -38.1850 N.2          1 GSP401   0.0000
    25 C5         -22.2790    -8.1700   -39.0710 C.2          1 GSP401   0.0000
    26 C6         -21.4810    -9.0370   -39.8060 C.2          1 GSP401   0.0000
    27 O6         -21.6190   -10.2490   -39.7260 O.2          1 GSP401   0.0000
    28 N1         -20.5190    -8.5290   -40.6470 N.pl3        1 GSP401   0.0000
    29 C2         -20.3620    -7.1570   -40.7370 C.2          1 GSP401   0.0000
    30 N2         -19.4660    -6.5830   -41.5280 N.pl3        1 GSP401   0.0000
    31 N3         -21.1400    -6.3200   -40.0000 N.2          1 GSP401   0.0000
    32 C4         -22.0880    -6.8040   -39.1800 C.2          1 GSP401   0.0000
    33 H5'1       -24.0968    -3.9819   -34.2343 H            1 GSP401   0.0000
    34 H5'2       -25.5225    -4.2188   -34.9946 H            1 GSP401   0.0000
    35 H4'        -23.6908    -2.7680   -36.0645 H            1 GSP401   0.0000
    36 H3'        -25.7932    -4.2456   -37.1525 H            1 GSP401   0.0000
    37 H5         -26.1803    -2.2271   -38.1517 H            1 GSP401   0.0000
    38 H2'        -24.8918    -4.7213   -39.1688 H            1 GSP401   0.0000
    39 H7         -24.7741    -2.4297   -39.6390 H            1 GSP401   0.0000
    40 H1'        -22.2838    -4.2651   -38.7168 H            1 GSP401   0.0000
    41 H9         -24.4353    -6.9484   -37.0661 H            1 GSP401   0.0000
    42 H10        -19.9412    -9.1421   -41.1858 H            1 GSP401   0.0000
    43 H11        -19.3910    -5.5863   -41.5579 H            1 GSP401   0.0000
    44 H12        -18.8652    -7.1468   -42.0947 H            1 GSP401   0.0000
@<TRIPOS>BOND
     1    1    2       1
     2    1    3       2
     3    1    4      ar
     4    1    5      ar
     5    2    6       1
     6    6    7      ar
     7    6    8      ar
     8    6   12       1
     9    9   10      ar
    10    9   11      ar
    11    9   12       1
    12    9   13       1
    13   13   14       1
    14   14   15       1
    15   15   16       1
    16   15   17       1
    17   16   21       1
    18   17   18       1
    19   17   19       1
    20   19   20       1
    21   19   21       1
    22   21   22       1
    23   22   23       1
    24   22   32       1
    25   23   24       2
    26   24   25       1
    27   25   26       1
    28   25   32       2
    29   26   27       2
    30   26   28       1
    31   28   29       1
    32   29   30       1
    33   29   31       2
    34   31   32       1
    35   30   44       1
    36   30   43       1
    37   28   42       1
    38   23   41       1
    39   14   33       1
    40   14   34       1
    41   15   35       1
    42   17   36       1
    43   18   37       1
    44   19   38       1
    45   20   39       1
    46   21   40       1
@<TRIPOS>SUBSTRUCTURE
     1 GSP401      1 GROUP             4 B     GSP     0 **** GSP B 401
