@<TRIPOS>MOLECULE
3eps_ATP_2_ligand
   43    45     1     0     0
SMALL
NO_CHARGES


@<TRIPOS>ATOM
     1 PG          28.3010     8.5220    39.8350 P.3          1 ATP1605   0.0000
     2 O1G         29.6580     8.2950    40.3810 O.co2        1 ATP1605   0.0000
     3 O2G         27.9160     7.1450    39.1130 O.co2        1 ATP1605  -1.0000
     4 O3G         28.3190     9.7200    38.7550 O.co2        1 ATP1605  -1.0000
     5 PB          27.7410    10.2500    41.6520 P.3          1 ATP1605   0.0000
     6 O1B         29.2400    10.3430    41.7850 O.co2        1 ATP1605   0.0000
     7 O2B         27.1560    11.2110    40.4820 O.co2        1 ATP1605  -1.0000
     8 O3B         27.2730     8.8200    41.1500 O.3          1 ATP1605   0.0000
     9 PA          27.9820    12.4180    42.9650 P.3          1 ATP1605   0.0000
    10 O1A         28.2010    13.0500    41.5980 O.co2        1 ATP1605   0.0000
    11 O2A         29.4550    12.1540    43.5750 O.co2        1 ATP1605  -1.0000
    12 O3A         27.1030    10.9560    42.9220 O.3          1 ATP1605   0.0000
    13 O5'         27.2440    13.3860    43.9990 O.3          1 ATP1605   0.0000
    14 C5'         27.8420    14.6420    43.7750 C.3          1 ATP1605   0.0000
    15 C4'         27.1080    15.6340    44.5970 C.3          1 ATP1605   0.0000
    16 O4'         27.2970    15.3610    45.9990 O.3          1 ATP1605   0.0000
    17 C3'         27.6040    17.0330    44.2970 C.3          1 ATP1605   0.0000
    18 O3'         26.5200    17.8160    43.8150 O.3          1 ATP1605   0.0000
    19 C2'         28.1700    17.5640    45.5830 C.3          1 ATP1605   0.0000
    20 O2'         27.4590    18.7290    46.0070 O.3          1 ATP1605   0.0000
    21 C1'         28.0540    16.4330    46.5980 C.3          1 ATP1605   0.0000
    22 N9          29.4140    16.0310    46.9310 N.pl3        1 ATP1605   0.0000
    23 C8          30.0200    14.8830    46.5020 C.2          1 ATP1605   0.0000
    24 N7          31.2290    14.8280    46.9740 N.2          1 ATP1605   0.0000
    25 C5          31.4620    15.9260    47.7260 C.ar         1 ATP1605   0.0000
    26 C6          32.5510    16.4030    48.4710 C.ar         1 ATP1605   0.0000
    27 N6          33.7230    15.6630    48.5290 N.pl3        1 ATP1605   0.0000
    28 N1          32.4250    17.5900    49.1260 N.ar         1 ATP1605   0.0000
    29 C2          31.2950    18.3000    49.0690 C.ar         1 ATP1605   0.0000
    30 N3          30.2410    17.8780    48.3700 N.ar         1 ATP1605   0.0000
    31 C4          30.2890    16.7160    47.7010 C.ar         1 ATP1605   0.0000
    32 H5'1        27.7763    14.8843    42.8070 H            1 ATP1605   0.0000
    33 H5'2        28.8038    14.6164    44.0477 H            1 ATP1605   0.0000
    34 H4'         26.1329    15.5796    44.3818 H            1 ATP1605   0.0000
    35 H3'         28.3239    16.9930    43.6041 H            1 ATP1605   0.0000
    36 H5          25.8697    17.2262    43.3362 H            1 ATP1605   0.0000
    37 H2'         29.1343    17.7937    45.4511 H            1 ATP1605   0.0000
    38 H7          26.7352    18.9358    45.3487 H            1 ATP1605   0.0000
    39 H1'         27.5866    16.7607    47.4190 H            1 ATP1605   0.0000
    40 H9          29.5976    14.1921    45.9153 H            1 ATP1605   0.0000
    41 H10         34.5013    15.9998    49.0590 H            1 ATP1605   0.0000
    42 H11         33.7896    14.7928    48.0408 H            1 ATP1605   0.0000
    43 H12         31.2383    19.1682    49.5620 H            1 ATP1605   0.0000
@<TRIPOS>BOND
     1    1    2      ar
     2    1    3      ar
     3    1    4      ar
     4    1    8       1
     5    5    6      ar
     6    5    7      ar
     7    5    8       1
     8    5   12       1
     9    9   10      ar
    10    9   11      ar
    11    9   12       1
    12    9   13       1
    13   13   14       1
    14   14   15       1
    15   15   16       1
    16   15   17       1
    17   16   21       1
    18   17   18       1
    19   17   19       1
    20   19   20       1
    21   19   21       1
    22   21   22       1
    23   22   23       1
    24   22   31       1
    25   23   24       2
    26   24   25       1
    27   25   26      ar
    28   25   31      ar
    29   26   27       1
    30   26   28      ar
    31   28   29      ar
    32   29   30      ar
    33   30   31      ar
    34   29   43       1
    35   27   42       1
    36   27   41       1
    37   23   40       1
    38   14   32       1
    39   14   33       1
    40   15   34       1
    41   17   35       1
    42   18   36       1
    43   19   37       1
    44   20   38       1
    45   21   39       1
@<TRIPOS>SUBSTRUCTURE
     1 ATP1605     1 GROUP             4 B     ATP     0 **** ATP B1605
