@<TRIPOS>MOLECULE
6atj_FER_1_ligand
   23    23     1     0     0
SMALL
NO_CHARGES


@<TRIPOS>ATOM
     1 C4           1.5750     2.1350     1.8530 C.ar         1 FER601   0.0000
     2 C5           1.4340     1.6730     0.5340 C.ar         1 FER601   0.0000
     3 C6           0.2340     1.7420    -0.1290 C.ar         1 FER601   0.0000
     4 C3           0.4550     2.6790     2.5020 C.ar         1 FER601   0.0000
     5 C2          -0.7690     2.7510     1.8230 C.ar         1 FER601   0.0000
     6 C1          -0.9010     2.2810     0.4920 C.ar         1 FER601   0.0000
     7 C10         -0.3030     3.6800     4.5880 C.3          1 FER601   0.0000
     8 C7          -2.1490     2.3510    -0.2560 C.2          1 FER601   0.0000
     9 C8          -2.4380     1.9090    -1.4840 C.2          1 FER601   0.0000
    10 C9          -3.7560     2.0700    -2.1040 C.2          1 FER601   0.0000
    11 O1          -3.9070     1.5800    -3.2900 O.co2        1 FER601   0.0000
    12 O2          -4.7000     2.6520    -1.4990 O.co2        1 FER601  -1.0000
    13 O4           2.7830     2.0570     2.4760 O.3          1 FER601   0.0000
    14 O3           0.7230     3.0960     3.7910 O.3          1 FER601   0.0000
    15 H1           2.2277     1.2841     0.0663 H            1 FER601   0.0000
    16 H2           0.1688     1.4032    -1.0676 H            1 FER601   0.0000
    17 H3          -1.5645     3.1414     2.2863 H            1 FER601   0.0000
    18 H4           0.0677     3.9199     5.4852 H            1 FER601   0.0000
    19 H5          -0.6462     4.5044     4.1379 H            1 FER601   0.0000
    20 H6          -1.0509     3.0257     4.7004 H            1 FER601   0.0000
    21 H7          -2.9050     2.7980     0.2222 H            1 FER601   0.0000
    22 H8          -1.7204     1.4463    -2.0045 H            1 FER601   0.0000
    23 H9           2.8835     2.3859     3.4150 H            1 FER601   0.0000
@<TRIPOS>BOND
     1    1    2      ar
     2    1    4      ar
     3    1   13       1
     4    2    3      ar
     5    3    6      ar
     6    4    5      ar
     7    4   14       1
     8    5    6      ar
     9    6    8       1
    10    7   14       1
    11    8    9       2
    12    9   10       1
    13   10   11      ar
    14   10   12      ar
    15    2   15       1
    16    3   16       1
    17    5   17       1
    18    7   18       1
    19    7   19       1
    20    7   20       1
    21    8   21       1
    22    9   22       1
    23   13   23       1
@<TRIPOS>SUBSTRUCTURE
     1 FER601      1 GROUP             4 A     FER     0 **** FER A 601
