@<TRIPOS>MOLECULE
4ee3_UDH_3_ligand
   58    59     1     0     0
SMALL
NO_CHARGES


@<TRIPOS>ATOM
     1 N1          31.8680    -0.3650    92.1920 N.pl3        1 UDH406   0.0000
     2 C2          31.0020    -0.0640    91.1420 C.2          1 UDH406   0.0000
     3 N3          29.8370    -0.7440    90.9780 N.pl3        1 UDH406   0.0000
     4 C4          29.4380    -1.6460    91.9140 C.2          1 UDH406   0.0000
     5 C5          30.2050    -1.9120    93.0490 C.2          1 UDH406   0.0000
     6 C6          31.3900    -1.2080    93.2130 C.2          1 UDH406   0.0000
     7 O2          31.3810     0.8090    90.1850 O.2          1 UDH406   0.0000
     8 O4          28.3550    -2.2410    91.7330 O.2          1 UDH406   0.0000
     9 C1B         33.0240     0.5140    92.4480 C.3          1 UDH406   0.0000
    10 C2B         32.7340     1.9910    92.6190 C.3          1 UDH406   0.0000
    11 O2'         33.8810     2.6130    92.0160 O.3          1 UDH406   0.0000
    12 C3B         32.7780     2.1170    94.1210 C.3          1 UDH406   0.0000
    13 C4B         33.8830     1.1470    94.5090 C.3          1 UDH406   0.0000
    14 O4'         33.8300     0.0820    93.5400 O.3          1 UDH406   0.0000
    15 O3'         33.1950     3.4110    94.4750 O.3          1 UDH406   0.0000
    16 C5B         33.8150     0.6730    95.9680 C.3          1 UDH406   0.0000
    17 O5'         32.5330     0.1050    96.1990 O.3          1 UDH406   0.0000
    18 PA          31.4400     0.8740    97.0490 P.3          1 UDH406   0.0000
    19 O1A         31.3740     2.3340    96.7690 O.co2        1 UDH406   0.0000
    20 O2A         30.1080     0.1830    97.0000 O.co2        1 UDH406  -1.0000
    21 O3A         32.0470     0.6220    98.5170 O.3          1 UDH406   0.0000
    22 PB          31.6050     1.5660    99.7890 P.3          1 UDH406   0.0000
    23 O1B         32.4860     1.0500   100.8690 O.co2        1 UDH406   0.0000
    24 O2B         30.1210     1.0120    99.9460 O.3          1 UDH406   0.0000
    25 O3B         31.5260     3.0580    99.4620 O.co2        1 UDH406  -1.0000
    26 C1'         29.9130    -0.3470   100.3570 C.3          1 UDH406   0.0000
    27 C2'         28.4190    -0.6910   100.2310 C.3          1 UDH406   0.0000
    28 C3'         27.5290     0.4760   100.6600 C.3          1 UDH406   0.0000
    29 C4'         26.9480     0.3230   102.0670 C.3          1 UDH406   0.0000
    30 C5'         25.9790     1.4650   102.3900 C.3          1 UDH406   0.0000
    31 C6'         25.7720     1.6180   103.9020 C.3          1 UDH406   0.0000
    32 N6'         24.4500     2.1550   104.2050 N.4          1 UDH406   1.0000
    33 H1          29.2729    -0.5810    90.1686 H            1 UDH406   0.0000
    34 H2          29.9100    -2.5889    93.7234 H            1 UDH406   0.0000
    35 H3          31.9083    -1.3004    94.0632 H            1 UDH406   0.0000
    36 H1B         33.6045     0.4430    91.6368 H            1 UDH406   0.0000
    37 H2B         31.8643     2.2783    92.2175 H            1 UDH406   0.0000
    38 H2'         33.9417     2.3405    91.0558 H            1 UDH406   0.0000
    39 H3B         31.9037     1.8768    94.5427 H            1 UDH406   0.0000
    40 H4B         34.7552     1.6208    94.3873 H            1 UDH406   0.0000
    41 H3'         32.3964     4.0067    94.5611 H            1 UDH406   0.0000
    42 H5B1        33.9552     1.4499    96.5818 H            1 UDH406   0.0000
    43 H5B2        34.5228    -0.0139    96.1327 H            1 UDH406   0.0000
    44 H1'1        30.2024    -0.4568   101.3079 H            1 UDH406   0.0000
    45 H1'2        30.4473    -0.9584    99.7733 H            1 UDH406   0.0000
    46 H2'1        28.2188    -1.4808   100.8107 H            1 UDH406   0.0000
    47 H2'2        28.2184    -0.9177    99.2779 H            1 UDH406   0.0000
    48 H3'1        26.7710     0.5495   100.0119 H            1 UDH406   0.0000
    49 H3'2        28.0733     1.3145   100.6329 H            1 UDH406   0.0000
    50 H4'1        27.6951     0.3306   102.7316 H            1 UDH406   0.0000
    51 H4'2        26.4587    -0.5471   102.1256 H            1 UDH406   0.0000
    52 H5'1        25.0970     1.2740   101.9592 H            1 UDH406   0.0000
    53 H5'2        26.3503     2.3188   102.0251 H            1 UDH406   0.0000
    54 H6'1        26.4667     2.2392   104.2646 H            1 UDH406   0.0000
    55 H6'2        25.8668     0.7221   104.3360 H            1 UDH406   0.0000
    56 H24         23.8016     1.4018   104.3155 H            1 UDH406   0.0000
    57 H25         24.4918     2.6857   105.0515 H            1 UDH406   0.0000
    58 H6'3        24.1504     2.7456   103.4557 H            1 UDH406   0.0000
@<TRIPOS>BOND
     1    1    2       1
     2    1    6       1
     3    1    9       1
     4    2    3       1
     5    2    7       2
     6    3    4       1
     7    4    5       1
     8    4    8       2
     9    5    6       2
    10    9   10       1
    11    9   14       1
    12   10   11       1
    13   10   12       1
    14   12   13       1
    15   12   15       1
    16   13   14       1
    17   13   16       1
    18   16   17       1
    19   17   18       1
    20   18   19      ar
    21   18   20      ar
    22   18   21       1
    23   21   22       1
    24   22   23      ar
    25   22   24       1
    26   22   25      ar
    27   24   26       1
    28   26   27       1
    29   27   28       1
    30   28   29       1
    31   29   30       1
    32   30   31       1
    33   31   32       1
    34    3   33       1
    35    5   34       1
    36    6   35       1
    37    9   36       1
    38   10   37       1
    39   11   38       1
    40   12   39       1
    41   13   40       1
    42   15   41       1
    43   16   42       1
    44   16   43       1
    45   32   57       1
    46   32   56       1
    47   26   44       1
    48   26   45       1
    49   27   46       1
    50   27   47       1
    51   28   48       1
    52   28   49       1
    53   29   50       1
    54   29   51       1
    55   30   52       1
    56   30   53       1
    57   31   54       1
    58   31   55       1
    59   32   58       1
@<TRIPOS>SUBSTRUCTURE
     1 UDH406      1 GROUP             4 C     UDH     0 **** UDH C 406
