@<TRIPOS>MOLECULE
3s8p_SAM_1_ligand
   50    52     1     0     0
SMALL
NO_CHARGES


@<TRIPOS>ATOM
     1 N           12.4070    49.5080     5.5110 N.4          1 SAM500   1.0000
     2 CA          11.0520    49.3270     4.9640 C.3          1 SAM500   0.0000
     3 C           10.0540    50.2100     5.6370 C.2          1 SAM500   0.0000
     4 O           10.2970    50.6130     6.8020 O.co2        1 SAM500   0.0000
     5 OXT          9.0020    50.4770     5.0040 O.co2        1 SAM500  -1.0000
     6 CB          10.5680    47.8780     5.1270 C.3          1 SAM500   0.0000
     7 CG          10.7470    47.0830     3.8220 C.3          1 SAM500   0.0000
     8 SD           9.7450    47.4900     2.5310 S.3          1 SAM500   1.0000
     9 CE           8.9900    46.0890     2.0480 C.3          1 SAM500   0.0000
    10 C5'         10.7900    47.7980     1.2460 C.3          1 SAM500   0.0000
    11 C4'         11.4030    49.2060     1.2380 C.3          1 SAM500   0.0000
    12 O4'         12.5400    49.2890     2.1050 O.3          1 SAM500   0.0000
    13 C3'         11.9610    49.6040    -0.1260 C.3          1 SAM500   0.0000
    14 O3'         10.9810    50.2310    -0.9500 O.3          1 SAM500   0.0000
    15 C2'         13.1190    50.5230     0.2060 C.3          1 SAM500   0.0000
    16 O2'         12.6600    51.8160     0.5940 O.3          1 SAM500   0.0000
    17 C1'         13.6560    49.8970     1.4770 C.3          1 SAM500   0.0000
    18 N9          14.6370    48.8230     1.1770 N.pl3        1 SAM500   0.0000
    19 C8          14.6370    47.6020     1.7640 C.2          1 SAM500   0.0000
    20 N7          15.6550    46.8340     1.3080 N.2          1 SAM500   0.0000
    21 C5          16.3240    47.5850     0.4150 C.ar         1 SAM500   0.0000
    22 C6          17.4990    47.3690    -0.4510 C.ar         1 SAM500   0.0000
    23 N6          18.1430    46.1840    -0.4010 N.pl3        1 SAM500   0.0000
    24 N1          17.8970    48.3780    -1.2560 N.ar         1 SAM500   0.0000
    25 C2          17.2500    49.5730    -1.2810 C.ar         1 SAM500   0.0000
    26 N3          16.1570    49.8380    -0.5350 N.ar         1 SAM500   0.0000
    27 C4          15.6530    48.8910     0.3210 C.ar         1 SAM500   0.0000
    28 H1          13.0427    48.9005     5.0346 H            1 SAM500   0.0000
    29 H2          12.6940    50.4573     5.3831 H            1 SAM500   0.0000
    30 HA          11.0691    49.5499     3.9893 H            1 SAM500   0.0000
    31 HB1          9.5994    47.8834     5.3757 H            1 SAM500   0.0000
    32 HB2         11.0961    47.4372     5.8528 H            1 SAM500   0.0000
    33 HG1         10.5893    46.1183     4.0331 H            1 SAM500   0.0000
    34 HG2         11.6922    47.2080     3.5205 H            1 SAM500   0.0000
    35 HE1          8.3820    46.2861     1.2789 H            1 SAM500   0.0000
    36 HE2          9.6776    45.4198     1.7663 H            1 SAM500   0.0000
    37 HE3          8.4564    45.7187     2.8084 H            1 SAM500   0.0000
    38 H5'1        10.2804    47.6757     0.3943 H            1 SAM500   0.0000
    39 H5'2        11.5365    47.1339     1.2860 H            1 SAM500   0.0000
    40 H4'         10.7145    49.8721     1.5249 H            1 SAM500   0.0000
    41 H3'         12.3093    48.7895    -0.5899 H            1 SAM500   0.0000
    42 H15         10.6464    51.0585    -0.4991 H            1 SAM500   0.0000
    43 H2'         13.8023    50.5600    -0.5232 H            1 SAM500   0.0000
    44 H17         13.0282    52.5025    -0.0331 H            1 SAM500   0.0000
    45 H1'         14.0617    50.5920     2.0706 H            1 SAM500   0.0000
    46 H19         13.9699    47.3054     2.4474 H            1 SAM500   0.0000
    47 H20         18.9408    46.0236    -0.9822 H            1 SAM500   0.0000
    48 H21         17.8224    45.4664     0.2173 H            1 SAM500   0.0000
    49 H22         17.6011    50.2912    -1.8817 H            1 SAM500   0.0000
    50 H23         12.4046    49.2890     6.4867 H            1 SAM500   0.0000
@<TRIPOS>BOND
     1    1    2       1
     2    2    3       1
     3    2    6       1
     4    3    4      ar
     5    3    5      ar
     6    6    7       1
     7    7    8       1
     8    8    9       1
     9    8   10       1
    10   10   11       1
    11   11   12       1
    12   11   13       1
    13   12   17       1
    14   13   14       1
    15   13   15       1
    16   15   16       1
    17   15   17       1
    18   17   18       1
    19   18   19       1
    20   18   27       1
    21   19   20       2
    22   20   21       1
    23   21   22      ar
    24   21   27      ar
    25   22   23       1
    26   22   24      ar
    27   24   25      ar
    28   25   26      ar
    29   26   27      ar
    30    1   28       1
    31    1   29       1
    32    2   30       1
    33    1   50       1
    34    6   31       1
    35    6   32       1
    36    7   33       1
    37    7   34       1
    38    9   35       1
    39    9   36       1
    40    9   37       1
    41   10   38       1
    42   10   39       1
    43   11   40       1
    44   13   41       1
    45   14   42       1
    46   15   43       1
    47   16   44       1
    48   17   45       1
    49   19   46       1
    50   23   47       1
    51   23   48       1
    52   25   49       1
@<TRIPOS>SUBSTRUCTURE
     1 SAM500      1 GROUP             4 A     SAM     0 **** SAM A 500
