@<TRIPOS>MOLECULE
4dma_0L8_1_ligand
   34    36     1     0     0
SMALL
NO_CHARGES


@<TRIPOS>ATOM
     1 C1           2.4540    -0.6130    -4.0700 C.ar         1 0L8701   0.0000
     2 C2           3.0440     0.6480    -3.8850 C.ar         1 0L8701   0.0000
     3 C3           4.3620     0.9400    -4.3560 C.ar         1 0L8701   0.0000
     4 C4           5.1810    -0.0730    -5.0690 C.ar         1 0L8701   0.0000
     5 C5           4.5190    -1.3880    -5.2420 C.ar         1 0L8701   0.0000
     6 C6           3.1930    -1.6070    -4.7390 C.ar         1 0L8701   0.0000
     7 C7           6.6260     0.1810    -5.6020 C.ar         1 0L8701   0.0000
     8 C8           7.7100     0.5000    -4.7160 C.ar         1 0L8701   0.0000
     9 C9           9.0530     0.7060    -5.2040 C.ar         1 0L8701   0.0000
    10 C10          9.3340     0.5880    -6.6110 C.ar         1 0L8701   0.0000
    11 C11          8.2650     0.2760    -7.5120 C.ar         1 0L8701   0.0000
    12 C12          6.9380     0.0790    -7.0110 C.ar         1 0L8701   0.0000
    13 C13          5.0790    -2.5880    -5.8940 C.2          1 0L8701   0.0000
    14 O14         10.6180     0.7680    -7.0690 O.3          1 0L8701   0.0000
    15 BR1          4.8380     2.6930    -3.9350 Br           1 0L8701   0.0000
    16 C16          1.0760    -0.8990    -3.5590 C.3          1 0L8701   0.0000
    17 O17          0.2100    -1.3030    -4.6050 O.3          1 0L8701   0.0000
    18 C14          6.0900    -3.4400    -5.3280 C.2          1 0L8701   0.0000
    19 C17          4.7680    -3.1220    -7.0810 C.2          1 0L8701   0.0000
    20 C15          6.2710    -4.3810    -6.2260 C.2          1 0L8701   0.0000
    21 O1           5.4830    -4.2340    -7.3260 O.2          1 0L8701   0.0000
    22 H1           2.5280     1.3613    -3.4108 H            1 0L8701   0.0000
    23 H2           2.7752    -2.5061    -4.8696 H            1 0L8701   0.0000
    24 H3           7.5300     0.5816    -3.7357 H            1 0L8701   0.0000
    25 H4           9.7882     0.9307    -4.5645 H            1 0L8701   0.0000
    26 H5           8.4456     0.1956    -8.4923 H            1 0L8701   0.0000
    27 H6           6.2040    -0.1358    -7.6553 H            1 0L8701   0.0000
    28 H7          10.8165     0.6867    -8.0457 H            1 0L8701   0.0000
    29 H8           0.7086    -0.0719    -3.1337 H            1 0L8701   0.0000
    30 H9           1.1267    -1.6296    -2.8781 H            1 0L8701   0.0000
    31 H10         -0.7259    -1.0246    -4.3892 H            1 0L8701   0.0000
    32 H11          6.5521    -3.3385    -4.4470 H            1 0L8701   0.0000
    33 H12          4.0883    -2.7413    -7.7079 H            1 0L8701   0.0000
    34 H13          6.9229    -5.1309    -6.1129 H            1 0L8701   0.0000
@<TRIPOS>BOND
     1    1    2      ar
     2    1    6      ar
     3    1   16       1
     4    2    3      ar
     5    3    4      ar
     6    3   15       1
     7    4    5      ar
     8    4    7       1
     9    5    6      ar
    10    5   13       1
    11    7    8      ar
    12    7   12      ar
    13    8    9      ar
    14    9   10      ar
    15   10   11      ar
    16   10   14       1
    17   11   12      ar
    18   13   18       1
    19   13   19       2
    20   16   17       1
    21   18   20       2
    22   19   21       1
    23   20   21       1
    24    2   22       1
    25    6   23       1
    26    8   24       1
    27    9   25       1
    28   11   26       1
    29   12   27       1
    30   14   28       1
    31   16   29       1
    32   16   30       1
    33   17   31       1
    34   18   32       1
    35   19   33       1
    36   20   34       1
@<TRIPOS>SUBSTRUCTURE
     1 0L8701      1 GROUP             4 A     0L8     0 **** 0L8 A 701
