@<TRIPOS>MOLECULE
5hvn_NAD_1_ligand
   70    74     1     0     0
SMALL
NO_CHARGES


@<TRIPOS>ATOM
     1 PA         -58.5460   -57.2670   -19.6010 P.3          1 NAD401   0.0000
     2 O1A        -58.4280   -55.8570   -19.0620 O.co2        1 NAD401   0.0000
     3 O2A        -59.8600   -57.7100   -20.1940 O.co2        1 NAD401  -1.0000
     4 O5B        -58.2030   -58.3530   -18.4660 O.3          1 NAD401   0.0000
     5 C5B        -58.2880   -59.7290   -18.7890 C.3          1 NAD401   0.0000
     6 C4B        -58.9410   -60.5890   -17.7150 C.3          1 NAD401   0.0000
     7 O4B        -58.1140   -60.7060   -16.5680 O.3          1 NAD401   0.0000
     8 C3B        -60.2660   -60.0750   -17.2080 C.3          1 NAD401   0.0000
     9 O3B        -61.1370   -61.2190   -17.1950 O.3          1 NAD401   0.0000
    10 C2B        -59.9820   -59.5490   -15.8020 C.3          1 NAD401   0.0000
    11 O2B        -61.1060   -59.6990   -14.9310 O.3          1 NAD401   0.0000
    12 C1B        -58.8700   -60.4700   -15.3680 C.3          1 NAD401   0.0000
    13 N9A        -57.8370   -59.9760   -14.4480 N.pl3        1 NAD401   0.0000
    14 C8A        -57.1840   -58.8090   -14.5100 C.2          1 NAD401   0.0000
    15 N7A        -56.2390   -58.7360   -13.5390 N.2          1 NAD401   0.0000
    16 C5A        -56.2730   -59.8870   -12.8610 C.ar         1 NAD401   0.0000
    17 C6A        -55.5410   -60.4680   -11.7240 C.ar         1 NAD401   0.0000
    18 N6A        -54.5600   -59.7700   -11.1060 N.pl3        1 NAD401   0.0000
    19 N1A        -55.8930   -61.7060   -11.3180 N.ar         1 NAD401   0.0000
    20 C2A        -56.8700   -62.3970   -11.9320 C.ar         1 NAD401   0.0000
    21 N3A        -57.5740   -61.9310   -12.9720 N.ar         1 NAD401   0.0000
    22 C4A        -57.3210   -60.7020   -13.4690 C.ar         1 NAD401   0.0000
    23 O3         -57.3840   -57.4840   -20.6850 O.3          1 NAD401   0.0000
    24 PN         -55.9240   -56.8080   -20.6630 P.3          1 NAD401   0.0000
    25 O1N        -54.9610   -57.8180   -21.2290 O.co2        1 NAD401   0.0000
    26 O2N        -55.6220   -56.2290   -19.3110 O.co2        1 NAD401  -1.0000
    27 O5D        -56.0490   -55.6050   -21.7130 O.3          1 NAD401   0.0000
    28 C5D        -57.0130   -55.6500   -22.7610 C.3          1 NAD401   0.0000
    29 C4D        -57.5370   -54.2490   -23.0360 C.3          1 NAD401   0.0000
    30 O4D        -56.5170   -53.2780   -22.7820 O.3          1 NAD401   0.0000
    31 C3D        -57.9490   -54.0830   -24.4860 C.3          1 NAD401   0.0000
    32 O3D        -59.3110   -53.6650   -24.5190 O.3          1 NAD401   0.0000
    33 C2D        -57.0540   -52.9920   -25.0420 C.3          1 NAD401   0.0000
    34 O2D        -57.7730   -52.0840   -25.8740 O.3          1 NAD401   0.0000
    35 C1D        -56.5180   -52.2870   -23.8070 C.3          1 NAD401   0.0000
    36 N1N        -55.1800   -51.7200   -24.0090 N.ar         1 NAD401   1.0000
    37 C2N        -55.0320   -50.3930   -23.8730 C.ar         1 NAD401   0.0000
    38 C3N        -53.7900   -49.7770   -24.0500 C.ar         1 NAD401   0.0000
    39 C7N        -53.6590   -48.2920   -23.8930 C.2          1 NAD401   0.0000
    40 O7N        -52.5550   -47.7930   -23.7770 O.2          1 NAD401   0.0000
    41 N7N        -54.7590   -47.5410   -23.8800 N.am         1 NAD401   0.0000
    42 C4N        -52.6810   -50.5620   -24.3750 C.ar         1 NAD401   0.0000
    43 C5N        -52.8540   -51.9400   -24.5110 C.ar         1 NAD401   0.0000
    44 C6N        -54.1220   -52.4940   -24.3180 C.ar         1 NAD401   0.0000
    45 H5B1       -57.3613   -60.0717   -18.9433 H            1 NAD401   0.0000
    46 H5B2       -58.8215   -59.8204   -19.6298 H            1 NAD401   0.0000
    47 H4B        -59.0842   -61.5042   -18.0917 H            1 NAD401   0.0000
    48 H3B        -60.6249   -59.3529   -17.7994 H            1 NAD401   0.0000
    49 H5         -62.0410   -60.9460   -16.8659 H            1 NAD401   0.0000
    50 H2B        -59.6721   -58.5986   -15.8291 H            1 NAD401   0.0000
    51 H7         -61.8603   -60.1251   -15.4305 H            1 NAD401   0.0000
    52 H1B        -59.2501   -61.3299   -15.0273 H            1 NAD401   0.0000
    53 H8A        -57.3675   -58.0897   -15.1800 H            1 NAD401   0.0000
    54 H6A1       -54.0688   -60.1741   -10.3343 H            1 NAD401   0.0000
    55 H6A2       -54.3263   -58.8501   -11.4210 H            1 NAD401   0.0000
    56 H2A        -57.0835   -63.3129   -11.5920 H            1 NAD401   0.0000
    57 H5D1       -57.7722   -56.2414   -22.4892 H            1 NAD401   0.0000
    58 H5D2       -56.5869   -56.0140   -23.5892 H            1 NAD401   0.0000
    59 H4D        -58.3228   -54.0669   -22.4450 H            1 NAD401   0.0000
    60 H3D        -57.8259   -54.9370   -24.9915 H            1 NAD401   0.0000
    61 H17        -59.9056   -54.4684   -24.5515 H            1 NAD401   0.0000
    62 H2D        -56.2992   -53.3998   -25.5558 H            1 NAD401   0.0000
    63 H19        -58.7329   -52.3608   -25.9178 H            1 NAD401   0.0000
    64 H1D        -57.1478   -51.5536   -23.5510 H            1 NAD401   0.0000
    65 H2N        -55.8272   -49.8332   -23.6401 H            1 NAD401   0.0000
    66 H7N1       -54.6860   -46.5491   -23.7760 H            1 NAD401   0.0000
    67 H7N2       -55.6578   -47.9691   -23.9743 H            1 NAD401   0.0000
    68 H4N        -51.7818   -50.1450   -24.5074 H            1 NAD401   0.0000
    69 H5N        -52.0777   -52.5255   -24.7444 H            1 NAD401   0.0000
    70 H6N        -54.2461   -53.4819   -24.4109 H            1 NAD401   0.0000
@<TRIPOS>BOND
     1    1    2      ar
     2    1    3      ar
     3    1    4       1
     4    1   23       1
     5    4    5       1
     6    5    6       1
     7    6    7       1
     8    6    8       1
     9    7   12       1
    10    8    9       1
    11    8   10       1
    12   10   11       1
    13   10   12       1
    14   12   13       1
    15   13   14       1
    16   13   22       1
    17   14   15       2
    18   15   16       1
    19   16   17      ar
    20   16   22      ar
    21   17   18       1
    22   17   19      ar
    23   19   20      ar
    24   20   21      ar
    25   21   22      ar
    26   23   24       1
    27   24   25      ar
    28   24   26      ar
    29   24   27       1
    30   27   28       1
    31   28   29       1
    32   29   30       1
    33   29   31       1
    34   30   35       1
    35   31   32       1
    36   31   33       1
    37   33   34       1
    38   33   35       1
    39   35   36       1
    40   36   37      ar
    41   36   44      ar
    42   37   38      ar
    43   38   39       1
    44   38   42      ar
    45   39   40       2
    46   39   41      am
    47   42   43      ar
    48   43   44      ar
    49   44   70       1
    50    5   45       1
    51    5   46       1
    52    6   47       1
    53    8   48       1
    54    9   49       1
    55   10   50       1
    56   11   51       1
    57   12   52       1
    58   14   53       1
    59   18   54       1
    60   18   55       1
    61   20   56       1
    62   43   69       1
    63   28   57       1
    64   28   58       1
    65   29   59       1
    66   31   60       1
    67   32   61       1
    68   33   62       1
    69   34   63       1
    70   35   64       1
    71   37   65       1
    72   41   66       1
    73   41   67       1
    74   42   68       1
@<TRIPOS>SUBSTRUCTURE
     1 NAD401      1 GROUP             4 A     NAD     0 **** NAD A 401
