@<TRIPOS>MOLECULE
3ijd_C2F_4_ligand
   56    58     1     0     0
SMALL
NO_CHARGES


@<TRIPOS>ATOM
     1 N1         -35.2060   -35.1500    40.4890 N.2          1 C2F315   0.0000
     2 C2         -35.5880   -36.2570    41.1880 C.2          1 C2F315   0.0000
     3 NA2        -35.3750   -36.2870    42.5250 N.pl3        1 C2F315   0.0000
     4 N3         -36.1640   -37.3320    40.6050 N.pl3        1 C2F315   0.0000
     5 C4         -36.4110   -37.3730    39.2840 C.2          1 C2F315   0.0000
     6 O4         -36.9480   -38.3820    38.7830 O.2          1 C2F315   0.0000
     7 C4A        -36.0330   -36.1960    38.4530 C.2          1 C2F315   0.0000
     8 N5         -36.2220   -36.0820    37.0720 N.pl3        1 C2F315   0.0000
     9 C6         -36.4470   -34.7590    36.4890 C.3          1 C2F315   0.0000
    10 C7         -35.2570   -33.9190    36.9880 C.3          1 C2F315   0.0000
    11 N8         -35.0420   -33.9790    38.4290 N.pl3        1 C2F315   0.0000
    12 C8A        -35.3950   -35.0630    39.1520 C.2          1 C2F315   0.0000
    13 C9         -37.7710   -34.1190    36.9430 C.3          1 C2F315   0.0000
    14 N10        -38.9280   -35.0090    36.9190 N.pl3        1 C2F315   0.0000
    15 C11        -36.1360   -37.2550    36.2150 C.3          1 C2F315   0.0000
    16 C12        -42.8020   -33.8530    38.1340 C.ar         1 C2F315   0.0000
    17 C13        -41.7590   -32.9120    38.0680 C.ar         1 C2F315   0.0000
    18 C14        -40.4690   -33.2800    37.6600 C.ar         1 C2F315   0.0000
    19 C15        -40.1790   -34.6020    37.3030 C.ar         1 C2F315   0.0000
    20 C16        -41.2120   -35.5440    37.3820 C.ar         1 C2F315   0.0000
    21 C17        -42.5000   -35.1790    37.7930 C.ar         1 C2F315   0.0000
    22 C          -44.2050   -33.4750    38.5920 C.2          1 C2F315   0.0000
    23 O          -45.0230   -34.3700    38.7730 O.2          1 C2F315   0.0000
    24 N          -44.5210   -32.2010    38.8830 N.am         1 C2F315   0.0000
    25 CA         -45.7320   -31.8140    39.6130 C.3          1 C2F315   0.0000
    26 CB         -45.5390   -32.1560    41.1210 C.3          1 C2F315   0.0000
    27 CG         -45.6120   -31.0300    42.1710 C.3          1 C2F315   0.0000
    28 CD         -45.2920   -31.4640    43.6070 C.2          1 C2F315   0.0000
    29 OE1        -45.5970   -30.6950    44.5450 O.co2        1 C2F315   0.0000
    30 OE2        -44.7220   -32.5510    43.8640 O.co2        1 C2F315  -1.0000
    31 CT         -46.0720   -30.3800    39.2810 C.2          1 C2F315   0.0000
    32 O1         -45.5000   -29.8690    38.2900 O.co2        1 C2F315   0.0000
    33 O2         -46.9150   -29.7470    39.9620 O.co2        1 C2F315  -1.0000
    34 HA21       -35.6474   -37.0889    43.0568 H            1 C2F315   0.0000
    35 HA22       -34.9453   -35.5073    42.9805 H            1 C2F315   0.0000
    36 H3         -36.4244   -34.8198    35.4911 H            1 C2F315   0.0000
    37 H4         -35.4191   -32.9652    36.7351 H            1 C2F315   0.0000
    38 H5         -34.4291   -34.2482    36.5339 H            1 C2F315   0.0000
    39 H6         -34.6230   -33.1984    38.8928 H            1 C2F315   0.0000
    40 H7         -37.9633   -33.3442    36.3407 H            1 C2F315   0.0000
    41 H8         -37.6515   -33.7911    37.8801 H            1 C2F315   0.0000
    42 H9         -38.8028   -35.9519    36.6105 H            1 C2F315   0.0000
    43 H10        -36.2971   -36.9865    35.2653 H            1 C2F315   0.0000
    44 H11        -35.2260   -37.6615    36.2967 H            1 C2F315   0.0000
    45 H12        -36.8258   -37.9230    36.4941 H            1 C2F315   0.0000
    46 H13        -41.9411   -31.9608    38.3172 H            1 C2F315   0.0000
    47 H14        -39.7469   -32.5891    37.6236 H            1 C2F315   0.0000
    48 H15        -41.0263   -36.4964    37.1401 H            1 C2F315   0.0000
    49 H16        -43.2159   -35.8753    37.8441 H            1 C2F315   0.0000
    50 H17        -43.8966   -31.4788    38.5856 H            1 C2F315   0.0000
    51 HA         -46.4798   -32.3837    39.2720 H            1 C2F315   0.0000
    52 HB1        -44.6370   -32.5785    41.2101 H            1 C2F315   0.0000
    53 HB2        -46.2446   -32.8229    41.3604 H            1 C2F315   0.0000
    54 HG1        -46.5386   -30.6540    42.1593 H            1 C2F315   0.0000
    55 HG2        -44.9602   -30.3183    41.9091 H            1 C2F315   0.0000
    56 H23        -36.4130   -38.1177    41.1713 H            1 C2F315   0.0000
@<TRIPOS>BOND
     1    1    2       2
     2    1   12       1
     3    2    3       1
     4    2    4       1
     5    4    5       1
     6    5    6       2
     7    5    7       1
     8    7    8       1
     9    7   12       2
    10    8    9       1
    11    8   15       1
    12    9   10       1
    13    9   13       1
    14   10   11       1
    15   11   12       1
    16   13   14       1
    17   14   19       1
    18   16   17      ar
    19   16   21      ar
    20   16   22       1
    21   17   18      ar
    22   18   19      ar
    23   19   20      ar
    24   20   21      ar
    25   22   23       2
    26   22   24      am
    27   24   25       1
    28   25   26       1
    29   25   31       1
    30   26   27       1
    31   27   28       1
    32   28   29      ar
    33   28   30      ar
    34   31   32      ar
    35   31   33      ar
    36    4   56       1
    37    3   34       1
    38    3   35       1
    39    9   36       1
    40   10   37       1
    41   10   38       1
    42   11   39       1
    43   13   40       1
    44   13   41       1
    45   14   42       1
    46   15   43       1
    47   15   44       1
    48   15   45       1
    49   17   46       1
    50   18   47       1
    51   20   48       1
    52   21   49       1
    53   24   50       1
    54   25   51       1
    55   26   52       1
    56   26   53       1
    57   27   54       1
    58   27   55       1
@<TRIPOS>SUBSTRUCTURE
     1 C2F315      1 GROUP             4 B     C2F     0 **** C2F B 315
