@<TRIPOS>MOLECULE
3rga_LSB_1_ligand
   59    60     1     0     0
SMALL
NO_CHARGES


@<TRIPOS>ATOM
     1 N12         57.2630    54.5010     9.5000 N.am         1 LSB301   0.0000
     2 C13         55.9640    54.4120    10.0480 C.2          1 LSB301   0.0000
     3 C14         55.4070    53.0150    10.1580 C.3          1 LSB301   0.0000
     4 C15         55.0290    52.5730    11.5480 C.3          1 LSB301   0.0000
     5 C16         56.0150    52.4900    12.7120 C.3          1 LSB301   0.0000
     6 C17         55.1850    52.1370    13.9420 C.3          1 LSB301   0.0000
     7 C18         54.3480    50.8550    13.9470 C.3          1 LSB301   0.0000
     8 C19         52.9430    50.9970    13.7700 C.3          1 LSB301   0.0000
     9 C20         52.0100    49.8300    13.4510 C.3          1 LSB301   0.0000
    10 C21         50.5260    50.2030    13.5770 C.3          1 LSB301   0.0000
    11 C22         49.4590    49.1160    13.6110 C.3          1 LSB301   0.0000
    12 C23         49.7570    47.7850    14.0030 C.3          1 LSB301   0.0000
    13 C24         48.6220    46.9500    14.4890 C.3          1 LSB301   0.0000
    14 O26         55.4220    55.4430    10.4000 O.2          1 LSB301   0.0000
    15 C27         54.2540    52.6620     9.2300 C.3          1 LSB301   0.0000
    16 C28         53.5400    53.6370     8.3730 C.3          1 LSB301   0.0000
    17 O29         54.6390    51.2740    11.2950 O.3          1 LSB301   0.0000
    18 C30         56.7540    53.7730    12.8950 C.3          1 LSB301   0.0000
    19 C31         55.0790    49.5040    13.7640 C.3          1 LSB301   0.0000
    20 C32         56.2990    49.2810    14.6190 C.3          1 LSB301   0.0000
    21 O33         53.4860    50.8240    15.0750 O.3          1 LSB301   0.0000
    22 C34         47.9680    49.5130    13.6580 C.3          1 LSB301   0.0000
    23 C35         47.4210    50.0440    14.9600 C.3          1 LSB301   0.0000
    24 O36         49.6560    48.1180    12.6360 O.3          1 LSB301   0.0000
    25 H1          57.7011    55.3937     9.3945 H            1 LSB301   0.0000
    26 H2          57.7444    53.6713     9.2176 H            1 LSB301   0.0000
    27 H3          56.1567    52.4117     9.8859 H            1 LSB301   0.0000
    28 H4          54.2290    53.0953    11.8432 H            1 LSB301   0.0000
    29 H5          56.6703    51.7555    12.5359 H            1 LSB301   0.0000
    30 H6          54.5531    52.8970    14.0938 H            1 LSB301   0.0000
    31 H7          55.8198    52.0724    14.7120 H            1 LSB301   0.0000
    32 H8          52.6106    51.9119    13.5408 H            1 LSB301   0.0000
    33 H9          52.2062    49.0816    14.0846 H            1 LSB301   0.0000
    34 H10         52.1851    49.5279    12.5139 H            1 LSB301   0.0000
    35 H11         50.3109    50.7922    12.7981 H            1 LSB301   0.0000
    36 H12         50.4320    50.7242    14.4252 H            1 LSB301   0.0000
    37 H13         50.6671    47.5988    14.3733 H            1 LSB301   0.0000
    38 H14         48.9580    46.0403    14.7329 H            1 LSB301   0.0000
    39 H15         48.2118    47.3805    15.2930 H            1 LSB301   0.0000
    40 H16         47.9347    46.8690    13.7671 H            1 LSB301   0.0000
    41 H17         53.5531    52.2538     9.8148 H            1 LSB301   0.0000
    42 H18         54.6133    51.9679     8.6062 H            1 LSB301   0.0000
    43 H19         52.8246    53.1660     7.8569 H            1 LSB301   0.0000
    44 H20         53.1266    54.3445     8.9461 H            1 LSB301   0.0000
    45 H21         54.1868    54.0586     7.7375 H            1 LSB301   0.0000
    46 H22         55.4062    50.7659    10.9035 H            1 LSB301   0.0000
    47 H23         57.3892    53.6853    13.6624 H            1 LSB301   0.0000
    48 H24         57.2649    53.9851    12.0620 H            1 LSB301   0.0000
    49 H25         56.1033    54.5086    13.0833 H            1 LSB301   0.0000
    50 H26         55.3620    49.4385    12.8071 H            1 LSB301   0.0000
    51 H27         54.4263    48.7747    13.9692 H            1 LSB301   0.0000
    52 H28         56.6871    48.3816    14.4179 H            1 LSB301   0.0000
    53 H29         56.9778    49.9885    14.4223 H            1 LSB301   0.0000
    54 H30         56.0420    49.3248    15.5844 H            1 LSB301   0.0000
    55 H31         47.4356    48.7006    13.4203 H            1 LSB301   0.0000
    56 H32         47.8257    50.2194    12.9647 H            1 LSB301   0.0000
    57 H33         46.4508    50.2603    14.8505 H            1 LSB301   0.0000
    58 H34         47.5298    49.3524    15.6740 H            1 LSB301   0.0000
    59 H35         47.9198    50.8713    15.2185 H            1 LSB301   0.0000
@<TRIPOS>BOND
     1    1    2      am
     2    2    3       1
     3    2   14       2
     4    3    4       1
     5    3   15       1
     6    4    5       1
     7    4   17       1
     8    5    6       1
     9    5   18       1
    10    6    7       1
    11    7    8       1
    12    7   19       1
    13    7   21       1
    14    8    9       1
    15    8   21       1
    16    9   10       1
    17   10   11       1
    18   11   12       1
    19   11   22       1
    20   11   24       1
    21   12   13       1
    22   12   24       1
    23   15   16       1
    24   19   20       1
    25   22   23       1
    26    1   25       1
    27    1   26       1
    28    3   27       1
    29    4   28       1
    30    5   29       1
    31    6   30       1
    32    6   31       1
    33    8   32       1
    34    9   33       1
    35    9   34       1
    36   10   35       1
    37   10   36       1
    38   12   37       1
    39   13   38       1
    40   13   39       1
    41   13   40       1
    42   15   41       1
    43   15   42       1
    44   16   43       1
    45   16   44       1
    46   16   45       1
    47   17   46       1
    48   18   47       1
    49   18   48       1
    50   18   49       1
    51   19   50       1
    52   19   51       1
    53   20   52       1
    54   20   53       1
    55   20   54       1
    56   22   55       1
    57   22   56       1
    58   23   57       1
    59   23   58       1
    60   23   59       1
@<TRIPOS>SUBSTRUCTURE
     1 LSB301      1 GROUP             4 A     LSB     0 **** LSB A 301
