@<TRIPOS>MOLECULE
1dkw_TBU_1_ligand
   15    14     1     0     0
SMALL
NO_CHARGES


@<TRIPOS>ATOM
     1 O           25.9810    34.9920     9.6930 O.3          1 TBU251   0.0000
     2 C           24.6020    35.1780    10.0240 C.3          1 TBU251   0.0000
     3 C1          23.7850    34.7290     8.8330 C.3          1 TBU251   0.0000
     4 C2          24.3660    36.6560    10.3010 C.3          1 TBU251   0.0000
     5 C3          24.2650    34.3280    11.2420 C.3          1 TBU251   0.0000
     6 H1          26.0543    34.6167     8.7690 H            1 TBU251   0.0000
     7 H2          22.8122    34.8466     9.0327 H            1 TBU251   0.0000
     8 H3          24.0301    35.2786     8.0343 H            1 TBU251   0.0000
     9 H4          23.9725    33.7650     8.6445 H            1 TBU251   0.0000
    10 H5          23.4046    36.8021    10.5343 H            1 TBU251   0.0000
    11 H6          24.9423    36.9483    11.0642 H            1 TBU251   0.0000
    12 H7          24.5960    37.1887     9.4865 H            1 TBU251   0.0000
    13 H8          23.3017    34.4530    11.4795 H            1 TBU251   0.0000
    14 H9          24.4347    33.3648    11.0336 H            1 TBU251   0.0000
    15 H10         24.8374    34.6081    12.0127 H            1 TBU251   0.0000
@<TRIPOS>BOND
     1    1    2       1
     2    2    3       1
     3    2    4       1
     4    2    5       1
     5    1    6       1
     6    3    7       1
     7    3    8       1
     8    3    9       1
     9    4   10       1
    10    4   11       1
    11    4   12       1
    12    5   13       1
    13    5   14       1
    14    5   15       1
@<TRIPOS>SUBSTRUCTURE
     1 TBU251      1 GROUP             4 A     TBU     0 **** TBU A 251
