@<TRIPOS>MOLECULE
3arw_CTI_1_ligand
   44    48     1     0     0
SMALL
NO_CHARGES


@<TRIPOS>ATOM
     1 C1          20.1890    -9.9140    22.4820 C.ar         1 CTI606   0.0000
     2 C2          18.9240    -9.8270    21.8590 C.ar         1 CTI606   0.0000
     3 C3          18.7580   -10.3610    20.6010 C.ar         1 CTI606   0.0000
     4 C4          19.8780   -10.9420    19.9770 C.ar         1 CTI606   0.0000
     5 C5          17.8610    -9.2610    22.5420 C.ar         1 CTI606   0.0000
     6 C6          16.5700    -9.2070    22.0010 C.ar         1 CTI606   0.0000
     7 C7          16.4010    -9.7470    20.7270 C.ar         1 CTI606   0.0000
     8 C8          17.4960   -10.3030    20.0150 C.ar         1 CTI606   0.0000
     9 N9          18.1220    -8.7860    23.8460 N.ar         1 CTI606   1.0000
    10 C10         15.5240    -8.6440    22.7540 C.ar         1 CTI606   0.0000
    11 C11         15.8040    -8.1510    24.0490 C.ar         1 CTI606   0.0000
    12 C12         17.0780    -8.2330    24.5790 C.ar         1 CTI606   0.0000
    13 C13         19.4750    -8.8530    24.4730 C.3          1 CTI606   0.0000
    14 C14         13.5190    -7.4680    24.3400 C.ar         1 CTI606   0.0000
    15 C15         13.1960    -7.9430    23.0540 C.ar         1 CTI606   0.0000
    16 C16         14.2080    -8.5360    22.2820 C.ar         1 CTI606   0.0000
    17 C17         14.8100    -7.5700    24.8560 C.ar         1 CTI606   0.0000
    18 O18         15.0880    -7.0260    26.1210 O.3          1 CTI606   0.0000
    19 C19         15.3140    -7.7360    27.3920 C.3          1 CTI606   0.0000
    20 O20         12.5720    -6.8750    25.1250 O.3          1 CTI606   0.0000
    21 C21         12.3480    -7.5730    26.3720 C.3          1 CTI606   0.0000
    22 C22         21.2950   -10.4960    21.8670 C.ar         1 CTI606   0.0000
    23 C23         21.1370   -11.0040    20.5780 C.ar         1 CTI606   0.0000
    24 O24         22.6220   -10.6540    22.2710 O.3          1 CTI606   0.0000
    25 C25         23.2140   -11.6110    21.3230 C.3          1 CTI606   0.0000
    26 O26         22.3630   -11.4930    20.1450 O.3          1 CTI606   0.0000
    27 H1          20.2949    -9.5418    23.4041 H            1 CTI606   0.0000
    28 H2          19.7670   -11.3281    19.0612 H            1 CTI606   0.0000
    29 H3          15.4932    -9.7426    20.3076 H            1 CTI606   0.0000
    30 H4          17.3606   -10.6545    19.0887 H            1 CTI606   0.0000
    31 H5          17.2511    -7.8899    25.5022 H            1 CTI606   0.0000
    32 H6          19.4355    -8.4639    25.3934 H            1 CTI606   0.0000
    33 H7          19.7706    -9.8068    24.5267 H            1 CTI606   0.0000
    34 H8          20.1252    -8.3332    23.9190 H            1 CTI606   0.0000
    35 H9          12.2652    -7.8597    22.6981 H            1 CTI606   0.0000
    36 H10         13.9848    -8.8898    21.3737 H            1 CTI606   0.0000
    37 H11         15.4886    -7.0715    28.1186 H            1 CTI606   0.0000
    38 H12         14.5037    -8.2753    27.6212 H            1 CTI606   0.0000
    39 H13         16.1031    -8.3432    27.2989 H            1 CTI606   0.0000
    40 H14         11.6477    -7.0938    26.9011 H            1 CTI606   0.0000
    41 H15         12.0419    -8.5058    26.1816 H            1 CTI606   0.0000
    42 H16         13.1996    -7.6020    26.8954 H            1 CTI606   0.0000
    43 H17         23.1887   -12.5406    21.6907 H            1 CTI606   0.0000
    44 H18         24.1586   -11.3633    21.1079 H            1 CTI606   0.0000
@<TRIPOS>BOND
     1    1    2      ar
     2    1   22      ar
     3    2    3      ar
     4    2    5      ar
     5    3    4      ar
     6    3    8      ar
     7    4   23      ar
     8    5    6      ar
     9    5    9      ar
    10    6    7      ar
    11    6   10      ar
    12    7    8      ar
    13    9   12      ar
    14    9   13       1
    15   10   11      ar
    16   10   16      ar
    17   11   12      ar
    18   11   17      ar
    19   14   15      ar
    20   14   17      ar
    21   14   20       1
    22   15   16      ar
    23   17   18       1
    24   18   19       1
    25   20   21       1
    26   22   23      ar
    27   22   24       1
    28   23   26       1
    29   24   25       1
    30   25   26       1
    31    1   27       1
    32    4   28       1
    33    7   29       1
    34    8   30       1
    35   12   31       1
    36   13   32       1
    37   13   33       1
    38   13   34       1
    39   15   35       1
    40   16   36       1
    41   19   37       1
    42   19   38       1
    43   19   39       1
    44   21   40       1
    45   21   41       1
    46   21   42       1
    47   25   43       1
    48   25   44       1
@<TRIPOS>SUBSTRUCTURE
     1 CTI606      1 GROUP             4 A     CTI     0 **** CTI A 606
