@<TRIPOS>MOLECULE
3e5h_GNP_1_ligand
   45    47     1     0     0
SMALL
NO_CHARGES


@<TRIPOS>ATOM
     1 PG           5.4010    -2.9260     3.0030 P.3          1 GNP201   0.0000
     2 O1G          4.3790    -1.8140     2.9260 O.co2        1 GNP201   0.0000
     3 O2G          4.8240    -4.1620     3.6370 O.co2        1 GNP201  -1.0000
     4 O3G          6.6230    -2.4240     3.7210 O.co2        1 GNP201  -1.0000
     5 N3B          5.8470    -3.2950     1.4790 N.3          1 GNP201   0.0000
     6 PB           6.8310    -4.4590     0.9190 P.3          1 GNP201   0.0000
     7 O1B          8.2290    -3.9770     0.7780 O.co2        1 GNP201   0.0000
     8 O2B          6.6370    -5.6540     1.7700 O.co2        1 GNP201  -1.0000
     9 O3A          6.4090    -4.8110    -0.5340 O.3          1 GNP201   0.0000
    10 PA           5.5440    -5.9740    -1.1180 P.3          1 GNP201   0.0000
    11 O1A          6.3130    -7.2450    -1.0740 O.co2        1 GNP201   0.0000
    12 O2A          4.1930    -5.9500    -0.5120 O.co2        1 GNP201  -1.0000
    13 O5'          5.4330    -5.6230    -2.6460 O.3          1 GNP201   0.0000
    14 C5'          5.0280    -4.3070    -3.0180 C.3          1 GNP201   0.0000
    15 C4'          4.5560    -4.3180    -4.4540 C.3          1 GNP201   0.0000
    16 O4'          5.6730    -4.5960    -5.3400 O.3          1 GNP201   0.0000
    17 C3'          3.4920    -5.3670    -4.7650 C.3          1 GNP201   0.0000
    18 O3'          2.5500    -4.8650    -5.7070 O.3          1 GNP201   0.0000
    19 C2'          4.3240    -6.5090    -5.3510 C.3          1 GNP201   0.0000
    20 O2'          3.6090    -7.3460    -6.2370 O.3          1 GNP201   0.0000
    21 C1'          5.3950    -5.7500    -6.1130 C.3          1 GNP201   0.0000
    22 N9           6.6460    -6.4800    -6.2580 N.pl3        1 GNP201   0.0000
    23 C8           7.4000    -7.0400    -5.2460 C.2          1 GNP201   0.0000
    24 N7           8.4900    -7.6230    -5.6810 N.2          1 GNP201   0.0000
    25 C5           8.4430    -7.4440    -7.0650 C.2          1 GNP201   0.0000
    26 C6           9.3470    -7.8690    -8.0720 C.2          1 GNP201   0.0000
    27 O6          10.4120    -8.4920    -7.9370 O.2          1 GNP201   0.0000
    28 N1           8.9400    -7.4700    -9.3460 N.pl3        1 GNP201   0.0000
    29 C2           7.7780    -6.7720    -9.6200 C.2          1 GNP201   0.0000
    30 N2           7.5350    -6.4870   -10.9150 N.pl3        1 GNP201   0.0000
    31 N3           6.9180    -6.3800    -8.6850 N.2          1 GNP201   0.0000
    32 C4           7.3150    -6.7440    -7.4330 C.2          1 GNP201   0.0000
    33 H3B          6.2539    -2.4488     1.1350 H            1 GNP201   0.0000
    34 H5'1         5.8018    -3.6804    -2.9253 H            1 GNP201   0.0000
    35 H5'2         4.2824    -4.0061    -2.4234 H            1 GNP201   0.0000
    36 H4'          4.1888    -3.4148    -4.6765 H            1 GNP201   0.0000
    37 H3'          3.0309    -5.6605    -3.9276 H            1 GNP201   0.0000
    38 H6           1.8627    -5.5660    -5.8970 H            1 GNP201   0.0000
    39 H2'          4.7364    -7.0502    -4.6181 H            1 GNP201   0.0000
    40 H8           3.1914    -8.0956    -5.7235 H            1 GNP201   0.0000
    41 H1'          5.0494    -5.4831    -7.0126 H            1 GNP201   0.0000
    42 H10          7.1411    -7.0044    -4.2808 H            1 GNP201   0.0000
    43 H11          9.5317    -7.7060   -10.1168 H            1 GNP201   0.0000
    44 H12          6.7091    -5.9841   -11.1698 H            1 GNP201   0.0000
    45 H13          8.1807    -6.7785   -11.6208 H            1 GNP201   0.0000
@<TRIPOS>BOND
     1    1    2      ar
     2    1    3      ar
     3    1    4      ar
     4    1    5       1
     5    5    6       1
     6    6    7      ar
     7    6    8      ar
     8    6    9       1
     9    9   10       1
    10   10   11      ar
    11   10   12      ar
    12   10   13       1
    13   13   14       1
    14   14   15       1
    15   15   16       1
    16   15   17       1
    17   16   21       1
    18   17   18       1
    19   17   19       1
    20   19   20       1
    21   19   21       1
    22   21   22       1
    23   22   23       1
    24   22   32       1
    25   23   24       2
    26   24   25       1
    27   25   26       1
    28   25   32       2
    29   26   27       2
    30   26   28       1
    31   28   29       1
    32   29   30       1
    33   29   31       2
    34   31   32       1
    35   30   45       1
    36   30   44       1
    37    5   33       1
    38   28   43       1
    39   23   42       1
    40   14   34       1
    41   14   35       1
    42   15   36       1
    43   17   37       1
    44   18   38       1
    45   19   39       1
    46   20   40       1
    47   21   41       1
@<TRIPOS>SUBSTRUCTURE
     1 GNP201      1 GROUP             4 A     GNP     0 **** GNP A 201
