@<TRIPOS>MOLECULE
2q5q_TPW_1_ligand
   43    44     1     0     0
SMALL
NO_CHARGES


@<TRIPOS>ATOM
     1 C2A         22.5130    69.4530    29.0710 C.3          1 TPW2002   0.0000
     2 C35         27.8370    67.1020    29.6150 C.3          1 TPW2002   0.0000
     3 C2          27.8680    64.9200    30.8540 C.2          1 TPW2002   0.0000
     4 S1          28.0900    64.3810    32.4910 S.3          1 TPW2002   0.0000
     5 C5          28.2810    65.9450    33.2810 C.2          1 TPW2002   0.0000
     6 C4          28.1730    66.8360    32.1990 C.2          1 TPW2002   0.0000
     7 C4A         28.2660    68.3570    32.3990 C.3          1 TPW2002   0.0000
     8 C5A         28.5070    66.1670    34.7220 C.3          1 TPW2002   0.0000
     9 C5B         27.2680    65.8230    35.5190 C.3          1 TPW2002   0.0000
    10 O5G         27.5440    66.2050    36.8570 O.3          1 TPW2002   0.0000
    11 P1          26.4560    65.6420    37.8590 P.3          1 TPW2002   0.0000
    12 O11         26.5120    64.0080    38.0970 O.3          1 TPW2002   0.0000
    13 O12         25.0330    65.9890    37.4310 O.co2        1 TPW2002   0.0000
    14 O13         26.7150    66.3440    39.2120 O.co2        1 TPW2002  -1.0000
    15 P2          28.0350    63.3890    38.2700 P.3          1 TPW2002   0.0000
    16 O21         28.8030    63.3820    36.9890 O.co2        1 TPW2002   0.0000
    17 O22         28.7930    64.2220    39.3410 O.co2        1 TPW2002  -1.0000
    18 O23         27.8310    61.8910    38.7430 O.co2        1 TPW2002  -1.0000
    19 N1'         24.9620    69.6390    29.3230 N.ar         1 TPW2002   1.0000
    20 C2'         23.8840    68.8400    29.1870 C.ar         1 TPW2002   0.0000
    21 N3'         24.0100    67.5060    29.1500 N.ar         1 TPW2002   0.0000
    22 C4'         25.2170    66.8930    29.2460 C.ar         1 TPW2002   0.0000
    23 N4'         25.2840    65.5070    29.1710 N.pl3        1 TPW2002   0.0000
    24 C5'         26.4080    67.7060    29.4350 C.ar         1 TPW2002   0.0000
    25 C6'         26.2250    69.1090    29.4560 C.ar         1 TPW2002   0.0000
    26 C3          27.9590    66.2540    30.9410 C.2          1 TPW2002   0.0000
    27 H2A1        21.8306    68.7281    28.9772 H            1 TPW2002   0.0000
    28 H2A2        22.3177    69.9906    29.8913 H            1 TPW2002   0.0000
    29 H2A3        22.4805    70.0473    28.2674 H            1 TPW2002   0.0000
    30 H4          28.5013    67.8488    29.6473 H            1 TPW2002   0.0000
    31 H5          28.0381    66.5106    28.8341 H            1 TPW2002   0.0000
    32 H6          27.7094    64.3644    30.0378 H            1 TPW2002   0.0000
    33 H4A1        28.1663    68.8160    31.5162 H            1 TPW2002   0.0000
    34 H4A2        27.5378    68.6573    33.0150 H            1 TPW2002   0.0000
    35 H4A3        29.1545    68.5873    32.7959 H            1 TPW2002   0.0000
    36 H5A1        28.7379    67.1281    34.8734 H            1 TPW2002   0.0000
    37 H5A2        29.2643    65.5900    35.0279 H            1 TPW2002   0.0000
    38 H5B1        27.0843    64.8413    35.4690 H            1 TPW2002   0.0000
    39 H5B2        26.4789    66.3280    35.1694 H            1 TPW2002   0.0000
    40 H4'1        26.1680    65.0447    29.2405 H            1 TPW2002   0.0000
    41 H4'2        24.4482    64.9720    29.0475 H            1 TPW2002   0.0000
    42 H6'         27.0128    69.7148    29.5674 H            1 TPW2002   0.0000
    43 H1'         24.8417    70.6317    29.3273 H            1 TPW2002   0.0000
@<TRIPOS>BOND
     1    1   20       1
     2    2   24       1
     3    2   26       1
     4    3    4       1
     5    3   26       2
     6    4    5       1
     7    5    6       2
     8    5    8       1
     9    6    7       1
    10    6   26       1
    11    8    9       1
    12    9   10       1
    13   10   11       1
    14   11   12       1
    15   11   13      ar
    16   11   14      ar
    17   12   15       1
    18   15   16      ar
    19   15   17      ar
    20   15   18      ar
    21   19   20      ar
    22   19   25      ar
    23   20   21      ar
    24   21   22      ar
    25   22   23       1
    26   22   24      ar
    27   24   25      ar
    28    1   27       1
    29    1   28       1
    30    1   29       1
    31    2   30       1
    32    2   31       1
    33    3   32       1
    34    7   33       1
    35    7   34       1
    36    7   35       1
    37    8   36       1
    38    8   37       1
    39    9   38       1
    40    9   39       1
    41   25   42       1
    42   23   41       1
    43   23   40       1
    44   19   43       1
@<TRIPOS>SUBSTRUCTURE
     1 TPW2002     1 GROUP             4 A     TPW     0 **** TPW A2002
