@<TRIPOS>MOLECULE
2hzq_STR_1_ligand
   53    56     1     0     0
SMALL
NO_CHARGES


@<TRIPOS>ATOM
     1 C1           8.1410    32.1210    56.6850 C.3          1 STR300   0.0000
     2 C2           8.8390    33.3880    56.1740 C.3          1 STR300   0.0000
     3 C3           7.9340    34.1130    55.1930 C.2          1 STR300   0.0000
     4 O3           8.3340    35.0380    54.4870 O.2          1 STR300   0.0000
     5 C4           6.5320    33.7110    55.0630 C.2          1 STR300   0.0000
     6 C5           5.9000    33.1200    56.0780 C.2          1 STR300   0.0000
     7 C6           4.3990    33.2830    56.1580 C.3          1 STR300   0.0000
     8 C7           3.7160    31.9250    56.1060 C.3          1 STR300   0.0000
     9 C8           4.3650    30.9750    57.1300 C.3          1 STR300   0.0000
    10 C9           5.9190    30.9150    57.0380 C.3          1 STR300   0.0000
    11 C10          6.6570    32.2780    57.0790 C.3          1 STR300   0.0000
    12 C11          6.5490    29.8770    57.9940 C.3          1 STR300   0.0000
    13 C12          5.8770    28.5000    57.9220 C.3          1 STR300   0.0000
    14 C13          4.3540    28.5790    58.0190 C.3          1 STR300   0.0000
    15 C14          3.8630    29.5320    56.9380 C.3          1 STR300   0.0000
    16 C15          2.3640    29.2350    56.8130 C.3          1 STR300   0.0000
    17 C16          2.2970    27.7200    57.0120 C.3          1 STR300   0.0000
    18 C17          3.6560    27.2920    57.6130 C.3          1 STR300   0.0000
    19 C18          3.8420    28.9620    59.4280 C.3          1 STR300   0.0000
    20 C19          6.6480    32.9430    58.4740 C.3          1 STR300   0.0000
    21 C20          3.5760    26.2720    58.7320 C.2          1 STR300   0.0000
    22 O20          2.5280    26.1210    59.3470 O.2          1 STR300   0.0000
    23 C21          4.7990    25.4470    59.0420 C.3          1 STR300   0.0000
    24 H1           8.6393    31.8011    57.4908 H            1 STR300   0.0000
    25 H2           8.1946    31.4302    55.9639 H            1 STR300   0.0000
    26 H3           9.6912    33.1358    55.7156 H            1 STR300   0.0000
    27 H4           9.0415    33.9901    56.9463 H            1 STR300   0.0000
    28 H5           6.0446    33.8809    54.2065 H            1 STR300   0.0000
    29 H6           4.0862    33.8391    55.3880 H            1 STR300   0.0000
    30 H7           4.1621    33.7386    57.0161 H            1 STR300   0.0000
    31 H8           3.8124    31.5398    55.1882 H            1 STR300   0.0000
    32 H9           2.7456    32.0330    56.3219 H            1 STR300   0.0000
    33 H10          4.1131    31.2789    58.0488 H            1 STR300   0.0000
    34 H11          6.1028    30.5573    56.1224 H            1 STR300   0.0000
    35 H12          6.4714    30.2196    58.9303 H            1 STR300   0.0000
    36 H13          7.5147    29.7718    57.7565 H            1 STR300   0.0000
    37 H14          6.2166    27.9388    58.6768 H            1 STR300   0.0000
    38 H15          6.1200    28.0709    57.0520 H            1 STR300   0.0000
    39 H16          4.2757    29.2117    56.0853 H            1 STR300   0.0000
    40 H17          2.0200    29.4947    55.9107 H            1 STR300   0.0000
    41 H18          1.8424    29.7139    57.5191 H            1 STR300   0.0000
    42 H19          2.1485    27.2632    56.1349 H            1 STR300   0.0000
    43 H20          1.5538    27.4870    57.6392 H            1 STR300   0.0000
    44 H21          4.1922    26.8826    56.8748 H            1 STR300   0.0000
    45 H22          2.8426    28.9957    59.4217 H            1 STR300   0.0000
    46 H23          4.1483    28.2789    60.0910 H            1 STR300   0.0000
    47 H24          4.2042    29.8589    59.6819 H            1 STR300   0.0000
    48 H25          5.7034    33.0681    58.7776 H            1 STR300   0.0000
    49 H26          7.1327    32.3587    59.1249 H            1 STR300   0.0000
    50 H27          7.1020    33.8325    58.4222 H            1 STR300   0.0000
    51 H28          4.5976    24.8230    59.7970 H            1 STR300   0.0000
    52 H29          5.0586    24.9190    58.2334 H            1 STR300   0.0000
    53 H30          5.5521    26.0517    59.3012 H            1 STR300   0.0000
@<TRIPOS>BOND
     1    1    2       1
     2    1   11       1
     3    2    3       1
     4    3    4       2
     5    3    5       1
     6    5    6       2
     7    6    7       1
     8    6   11       1
     9    7    8       1
    10    8    9       1
    11    9   10       1
    12    9   15       1
    13   10   11       1
    14   10   12       1
    15   11   20       1
    16   12   13       1
    17   13   14       1
    18   14   15       1
    19   14   18       1
    20   14   19       1
    21   15   16       1
    22   16   17       1
    23   17   18       1
    24   18   21       1
    25   21   22       2
    26   21   23       1
    27    1   24       1
    28    1   25       1
    29    2   26       1
    30    2   27       1
    31    5   28       1
    32    7   29       1
    33    7   30       1
    34    8   31       1
    35    8   32       1
    36    9   33       1
    37   10   34       1
    38   12   35       1
    39   12   36       1
    40   13   37       1
    41   13   38       1
    42   15   39       1
    43   16   40       1
    44   16   41       1
    45   17   42       1
    46   17   43       1
    47   18   44       1
    48   19   45       1
    49   19   46       1
    50   19   47       1
    51   20   48       1
    52   20   49       1
    53   20   50       1
    54   23   51       1
    55   23   52       1
    56   23   53       1
@<TRIPOS>SUBSTRUCTURE
     1 STR300      1 GROUP             4 A     STR     0 **** STR A 300
