@<TRIPOS>MOLECULE
3bw2_FMN_1_ligand
   53    55     1     0     0
SMALL
NO_CHARGES


@<TRIPOS>ATOM
     1 N1          58.8010   134.2540   -59.4280 N.pl3        1 FMN370   0.0000
     2 C2          58.8680   134.5320   -60.8040 C.2          1 FMN370   0.0000
     3 O2          58.4100   135.5840   -61.2420 O.2          1 FMN370   0.0000
     4 N3          59.4400   133.6250   -61.6810 N.pl3        1 FMN370   0.0000
     5 C4          59.9630   132.4110   -61.2660 C.2          1 FMN370   0.0000
     6 O4          60.4610   131.6260   -62.0940 O.2          1 FMN370   0.0000
     7 C4A         59.8930   132.1020   -59.8800 C.2          1 FMN370   0.0000
     8 N5          60.3750   130.8880   -59.3960 N.pl3        1 FMN370  -1.0000
     9 C5A         60.2890   130.5500   -58.0430 C.2          1 FMN370   0.0000
    10 C6          60.7730   129.2910   -57.6030 C.2          1 FMN370   0.0000
    11 C7          60.7060   128.8810   -56.2260 C.3          1 FMN370   0.0000
    12 C7M         60.4910   127.3590   -56.0470 C.3          1 FMN370   0.0000
    13 C8          60.0740   129.8250   -55.3350 C.3          1 FMN370   0.0000
    14 C8M         59.2860   129.4000   -54.0960 C.3          1 FMN370   0.0000
    15 C9          59.6040   131.1090   -55.7580 C.2          1 FMN370   0.0000
    16 C9A         59.7050   131.4760   -57.1210 C.2          1 FMN370   0.0000
    17 N10         59.2310   132.7280   -57.5970 N.pl3        1 FMN370   0.0000
    18 C10         59.3070   133.0450   -58.9700 C.2          1 FMN370   0.0000
    19 C1'         58.7760   133.8130   -56.6180 C.3          1 FMN370   0.0000
    20 C2'         57.2270   133.7830   -56.5770 C.3          1 FMN370   0.0000
    21 O2'         56.7280   134.5300   -57.6760 O.3          1 FMN370   0.0000
    22 C3'         56.6440   134.4460   -55.2820 C.3          1 FMN370   0.0000
    23 O3'         57.1470   135.7820   -55.2530 O.3          1 FMN370   0.0000
    24 C4'         57.0430   133.7470   -53.9720 C.3          1 FMN370   0.0000
    25 O4'         56.8470   132.3440   -54.1500 O.3          1 FMN370   0.0000
    26 C5'         56.1710   134.2570   -52.7860 C.3          1 FMN370   0.0000
    27 O5'         56.5230   133.6090   -51.5310 O.3          1 FMN370   0.0000
    28 P           55.9310   132.2050   -50.9370 P.3          1 FMN370   0.0000
    29 O1P         54.6360   132.5600   -51.5860 O.co2        1 FMN370   0.0000
    30 O2P         56.4120   132.8290   -49.6400 O.co2        1 FMN370  -1.0000
    31 O3P         56.9730   131.5510   -51.8250 O.co2        1 FMN370  -1.0000
    32 H1          58.3977   134.9126   -58.7927 H            1 FMN370   0.0000
    33 H2          59.4769   133.8559   -62.6533 H            1 FMN370   0.0000
    34 H3          61.1746   128.6671   -58.2734 H            1 FMN370   0.0000
    35 H4          61.6636   128.9721   -55.9528 H            1 FMN370   0.0000
    36 H7M1        60.4536   127.1400   -55.0720 H            1 FMN370   0.0000
    37 H7M2        59.6317   127.0903   -56.4822 H            1 FMN370   0.0000
    38 H7M3        61.2488   126.8632   -56.4711 H            1 FMN370   0.0000
    39 H8          60.9002   130.1357   -54.8651 H            1 FMN370   0.0000
    40 H8M1        58.9374   130.2120   -53.6279 H            1 FMN370   0.0000
    41 H8M2        58.5198   128.8193   -54.3712 H            1 FMN370   0.0000
    42 H8M3        59.8852   128.8907   -53.4783 H            1 FMN370   0.0000
    43 H12         59.2067   131.7429   -55.0945 H            1 FMN370   0.0000
    44 H1'1        59.0921   134.7089   -56.9301 H            1 FMN370   0.0000
    45 H1'2        59.1454   133.6279   -55.7073 H            1 FMN370   0.0000
    46 H2'         56.9082   132.8374   -56.6421 H            1 FMN370   0.0000
    47 H16         55.7282   134.5182   -57.6606 H            1 FMN370   0.0000
    48 H3'         55.6466   134.4729   -55.3483 H            1 FMN370   0.0000
    49 H18         56.8015   136.2507   -54.4400 H            1 FMN370   0.0000
    50 H4'         58.0074   133.9270   -53.7783 H            1 FMN370   0.0000
    51 H20         57.0996   131.8630   -53.3105 H            1 FMN370   0.0000
    52 H5'1        55.2098   134.0688   -52.9879 H            1 FMN370   0.0000
    53 H5'2        56.3041   135.2433   -52.6884 H            1 FMN370   0.0000
@<TRIPOS>BOND
     1    1    2       1
     2    1   18       1
     3    2    3       2
     4    2    4       1
     5    4    5       1
     6    5    6       2
     7    5    7       1
     8    7    8       1
     9    7   18       2
    10    8    9       1
    11    9   10       2
    12    9   16       1
    13   10   11       1
    14   11   12       1
    15   11   13       1
    16   13   14       1
    17   13   15       1
    18   15   16       2
    19   16   17       1
    20   17   18       1
    21   17   19       1
    22   19   20       1
    23   20   21       1
    24   20   22       1
    25   22   23       1
    26   22   24       1
    27   24   25       1
    28   24   26       1
    29   26   27       1
    30   27   28       1
    31   28   29      ar
    32   28   30      ar
    33   28   31      ar
    34    1   32       1
    35    4   33       1
    36   26   53       1
    37   10   34       1
    38   11   35       1
    39   12   36       1
    40   12   37       1
    41   12   38       1
    42   13   39       1
    43   14   40       1
    44   14   41       1
    45   14   42       1
    46   15   43       1
    47   19   44       1
    48   19   45       1
    49   20   46       1
    50   21   47       1
    51   22   48       1
    52   23   49       1
    53   24   50       1
    54   25   51       1
    55   26   52       1
@<TRIPOS>SUBSTRUCTURE
     1 FMN370      1 GROUP             4 A     FMN     0 **** FMN A 370
