@<TRIPOS>MOLECULE
3cx5_SMA_2_ligand
   79    80     1     0     0
SMALL
NO_CHARGES


@<TRIPOS>ATOM
     1 C2          32.4420   -23.4280    24.4690 C.2          1 SMA4025   0.0000
     2 C3          33.4720   -23.9390    23.7210 C.2          1 SMA4025   0.0000
     3 C3M         34.5280   -23.0710    23.1440 C.3          1 SMA4025   0.0000
     4 C4          33.5610   -25.3880    23.4440 C.2          1 SMA4025   0.0000
     5 C4A         32.4680   -26.1990    24.0260 C.ar         1 SMA4025   0.0000
     6 C5          32.3660   -27.6050    23.8430 C.ar         1 SMA4025   0.0000
     7 C5M         33.0240   -29.4340    22.4560 C.3          1 SMA4025   0.0000
     8 C6          31.3140   -28.3400    24.4100 C.ar         1 SMA4025   0.0000
     9 C7          30.3440   -27.6790    25.1780 C.ar         1 SMA4025   0.0000
    10 C7M         29.1790   -29.7200    25.6390 C.3          1 SMA4025   0.0000
    11 C8          30.4050   -26.2860    25.3850 C.ar         1 SMA4025   0.0000
    12 C8A         31.4690   -25.5650    24.7960 C.ar         1 SMA4025   0.0000
    13 C9          32.1800   -21.9900    24.8060 C.3          1 SMA4025   0.0000
    14 C10         32.9340   -21.3990    25.9700 C.3          1 SMA4025   0.0000
    15 C11         32.2800   -20.0770    26.3890 C.3          1 SMA4025   0.0000
    16 C12         33.1380   -19.3160    27.4190 C.3          1 SMA4025   0.0000
    17 C13         33.4940   -20.1450    28.6640 C.3          1 SMA4025   0.0000
    18 C14         34.1720   -19.2070    29.6920 C.3          1 SMA4025   0.0000
    19 C15         34.8000   -20.0210    30.7710 C.2          1 SMA4025   0.0000
    20 C16         34.3540   -20.0840    32.0220 C.2          1 SMA4025   0.0000
    21 C17         34.9890   -20.8920    33.0220 C.2          1 SMA4025   0.0000
    22 C18         34.6740   -20.8200    34.3230 C.2          1 SMA4025   0.0000
    23 C19         35.3000   -21.6310    35.3590 C.2          1 SMA4025   0.0000
    24 C20         34.8160   -21.5850    36.6170 C.2          1 SMA4025   0.0000
    25 C21         35.3490   -22.3490    37.7660 C.3          1 SMA4025   0.0000
    26 C22         32.0330   -19.1660    25.1870 C.3          1 SMA4025   0.0000
    27 C23         34.5270   -17.5280    26.6240 C.3          1 SMA4025   0.0000
    28 C24         32.2750   -20.8320    29.2580 C.3          1 SMA4025   0.0000
    29 C25         33.6630   -17.0100    30.4780 C.3          1 SMA4025   0.0000
    30 C26         36.4630   -22.4800    34.9600 C.3          1 SMA4025   0.0000
    31 O1          31.4400   -24.2070    25.0230 O.2          1 SMA4025   0.0000
    32 O4          34.4770   -25.8770    22.7650 O.2          1 SMA4025   0.0000
    33 O5          33.3480   -28.1800    23.0690 O.3          1 SMA4025   0.0000
    34 O7          29.2670   -28.3010    25.7790 O.3          1 SMA4025   0.0000
    35 O8          29.4820   -25.5720    26.1270 O.3          1 SMA4025   0.0000
    36 O12         34.3860   -18.9290    26.8070 O.3          1 SMA4025   0.0000
    37 O14         33.1700   -18.3140    30.1980 O.3          1 SMA4025   0.0000
    38 H3M1        35.1814   -23.6332    22.6370 H            1 SMA4025   0.0000
    39 H3M2        34.1110   -22.4050    22.5255 H            1 SMA4025   0.0000
    40 H3M3        35.0033   -22.5898    23.8806 H            1 SMA4025   0.0000
    41 H5M1        33.8057   -29.7557    21.9217 H            1 SMA4025   0.0000
    42 H5M2        32.8059   -30.1050    23.1647 H            1 SMA4025   0.0000
    43 H5M3        32.2343   -29.3165    21.8538 H            1 SMA4025   0.0000
    44 H7          31.2561   -29.3281    24.2676 H            1 SMA4025   0.0000
    45 H7M1        28.3635   -30.0518    26.1133 H            1 SMA4025   0.0000
    46 H7M2        29.1198   -29.9562    24.6691 H            1 SMA4025   0.0000
    47 H7M3        29.9921   -30.1452    26.0366 H            1 SMA4025   0.0000
    48 H11         31.2041   -21.9022    25.0058 H            1 SMA4025   0.0000
    49 H12         32.4048   -21.4470    23.9969 H            1 SMA4025   0.0000
    50 H13         33.8823   -21.2306    25.7011 H            1 SMA4025   0.0000
    51 H14         32.9140   -22.0384    26.7386 H            1 SMA4025   0.0000
    52 H15         31.3972   -20.2848    26.8102 H            1 SMA4025   0.0000
    53 H16         32.6477   -18.4930    27.7058 H            1 SMA4025   0.0000
    54 H17         34.1529   -20.8481    28.3965 H            1 SMA4025   0.0000
    55 H18         34.8811   -18.6743    29.2301 H            1 SMA4025   0.0000
    56 H19         35.6120   -20.5562    30.5383 H            1 SMA4025   0.0000
    57 H20         33.5476   -19.5492    32.2743 H            1 SMA4025   0.0000
    58 H21         35.6976   -21.5372    32.7365 H            1 SMA4025   0.0000
    59 H22         33.9661   -20.1700    34.5994 H            1 SMA4025   0.0000
    60 H23         34.0335   -20.9859    36.7867 H            1 SMA4025   0.0000
    61 H24         34.8142   -22.1372    38.5840 H            1 SMA4025   0.0000
    62 H25         35.2882   -23.3282    37.5723 H            1 SMA4025   0.0000
    63 H26         36.3049   -22.0981    37.9185 H            1 SMA4025   0.0000
    64 H27         31.6069   -18.3155    25.4953 H            1 SMA4025   0.0000
    65 H28         32.9037   -18.9599    24.7405 H            1 SMA4025   0.0000
    66 H29         31.4267   -19.6266    24.5387 H            1 SMA4025   0.0000
    67 H30         35.4106   -17.3348    26.1975 H            1 SMA4025   0.0000
    68 H31         33.7920   -17.1932    26.0344 H            1 SMA4025   0.0000
    69 H32         34.4777   -17.0693    27.5112 H            1 SMA4025   0.0000
    70 H33         32.5484   -21.3588    30.0628 H            1 SMA4025   0.0000
    71 H34         31.6006   -20.1431    29.5238 H            1 SMA4025   0.0000
    72 H35         31.8741   -21.4460    28.5781 H            1 SMA4025   0.0000
    73 H36         32.9187   -16.4398    30.8256 H            1 SMA4025   0.0000
    74 H37         34.3873   -17.0679    31.1650 H            1 SMA4025   0.0000
    75 H38         34.0297   -16.6053    29.6403 H            1 SMA4025   0.0000
    76 H39         36.7978   -22.9826    35.7571 H            1 SMA4025   0.0000
    77 H40         36.1763   -23.1275    34.2540 H            1 SMA4025   0.0000
    78 H41         37.1932   -21.8981    34.6019 H            1 SMA4025   0.0000
    79 H42         28.7122   -26.0446    26.5560 H            1 SMA4025   0.0000
@<TRIPOS>BOND
     1    1    2       2
     2    1   13       1
     3    1   31       1
     4    2    3       1
     5    2    4       1
     6    4    5       1
     7    4   32       2
     8    5    6      ar
     9    5   12      ar
    10    6    8      ar
    11    6   33       1
    12    7   33       1
    13    8    9      ar
    14    9   11      ar
    15    9   34       1
    16   10   34       1
    17   11   12      ar
    18   11   35       1
    19   12   31       1
    20   13   14       1
    21   14   15       1
    22   15   16       1
    23   15   26       1
    24   16   17       1
    25   16   36       1
    26   17   18       1
    27   17   28       1
    28   18   19       1
    29   18   37       1
    30   19   20       2
    31   20   21       1
    32   21   22       2
    33   22   23       1
    34   23   24       2
    35   23   30       1
    36   24   25       1
    37   27   36       1
    38   29   37       1
    39    3   38       1
    40    3   39       1
    41    3   40       1
    42    7   41       1
    43    7   42       1
    44    7   43       1
    45    8   44       1
    46   10   45       1
    47   10   46       1
    48   10   47       1
    49   13   48       1
    50   13   49       1
    51   14   50       1
    52   14   51       1
    53   15   52       1
    54   16   53       1
    55   17   54       1
    56   18   55       1
    57   19   56       1
    58   20   57       1
    59   21   58       1
    60   22   59       1
    61   24   60       1
    62   25   61       1
    63   25   62       1
    64   25   63       1
    65   26   64       1
    66   26   65       1
    67   26   66       1
    68   27   67       1
    69   27   68       1
    70   27   69       1
    71   28   70       1
    72   28   71       1
    73   28   72       1
    74   29   73       1
    75   29   74       1
    76   29   75       1
    77   30   76       1
    78   30   77       1
    79   30   78       1
    80   35   79       1
@<TRIPOS>SUBSTRUCTURE
     1 SMA4025     1 GROUP             4 N     SMA     0 **** SMA N4025
