@<TRIPOS>MOLECULE
2cic_DUP_1_ligand
   40    41     1     0     0
SMALL
NO_CHARGES


@<TRIPOS>ATOM
     1 O4          28.3460    54.8390    16.3030 O.2          1 DUP1968   0.0000
     2 C4          28.3660    54.0570    15.2920 C.2          1 DUP1968   0.0000
     3 C5          29.5190    54.0780    14.4780 C.2          1 DUP1968   0.0000
     4 C6          29.5750    53.1710    13.3910 C.2          1 DUP1968   0.0000
     5 N3          27.3470    53.2060    15.0010 N.pl3        1 DUP1968   0.0000
     6 C2          27.4120    52.3690    13.9200 C.2          1 DUP1968   0.0000
     7 O2          26.4720    51.6290    13.6640 O.2          1 DUP1968   0.0000
     8 N1          28.5100    52.3790    13.1240 N.pl3        1 DUP1968   0.0000
     9 C1'         28.5980    51.4070    12.0250 C.3          1 DUP1968   0.0000
    10 C2'         27.4890    51.5450    10.9670 C.3          1 DUP1968   0.0000
    11 C3'         28.2210    51.0260     9.7120 C.3          1 DUP1968   0.0000
    12 O3'         27.6500    49.7290     9.3660 O.3          1 DUP1968   0.0000
    13 O4'         29.8800    51.5700    11.3970 O.3          1 DUP1968   0.0000
    14 C4'         29.7060    50.9210    10.1060 C.3          1 DUP1968   0.0000
    15 C5'         30.6550    51.5270     9.1200 C.3          1 DUP1968   0.0000
    16 O5'         31.9820    51.2330     9.5780 O.3          1 DUP1968   0.0000
    17 PA          33.2610    51.8500     8.8160 P.3          1 DUP1968   0.0000
    18 O1A         32.9860    53.1550     8.1440 O.co2        1 DUP1968   0.0000
    19 O2A         34.3090    51.9240     9.9110 O.co2        1 DUP1968  -1.0000
    20 N3A         33.7610    50.6540     7.8290 N.3          1 DUP1968   0.0000
    21 PB          32.8970    49.8920     6.5780 P.3          1 DUP1968   0.0000
    22 O1B         32.2830    48.6560     7.1050 O.co2        1 DUP1968   0.0000
    23 O2B         31.9610    50.9370     6.0410 O.co2        1 DUP1968  -1.0000
    24 O3B         34.0740    49.4260     5.6150 O.3          1 DUP1968   0.0000
    25 PG          35.3100    49.9700     4.7990 P.3          1 DUP1968   0.0000
    26 O2G         36.4750    49.9960     5.7210 O.co2        1 DUP1968   0.0000
    27 O1G         35.1050    51.3460     4.2320 O.co2        1 DUP1968  -1.0000
    28 O3G         35.1240    48.8610     3.7870 O.co2        1 DUP1968  -1.0000
    29 H1          30.2706    54.7114    14.6622 H            1 DUP1968   0.0000
    30 H2          30.3969    53.1161    12.8240 H            1 DUP1968   0.0000
    31 H3          26.5364    53.1911    15.5864 H            1 DUP1968   0.0000
    32 H1'         28.5513    50.4866    12.4131 H            1 DUP1968   0.0000
    33 H2'1        27.2007    52.4963    10.8579 H            1 DUP1968   0.0000
    34 H2'2        26.6950    50.9796    11.1902 H            1 DUP1968   0.0000
    35 H3'         28.1078    51.6682     8.9539 H            1 DUP1968   0.0000
    36 H8          28.1082    49.3692     8.5532 H            1 DUP1968   0.0000
    37 H4'         29.9356    49.9531    10.2081 H            1 DUP1968   0.0000
    38 H5'1        30.5185    52.5167     9.0759 H            1 DUP1968   0.0000
    39 H5'2        30.5087    51.1297     8.2141 H            1 DUP1968   0.0000
    40 H3A         34.5788    51.0194     7.3844 H            1 DUP1968   0.0000
@<TRIPOS>BOND
     1    1    2       2
     2    2    3       1
     3    2    5       1
     4    3    4       2
     5    4    8       1
     6    5    6       1
     7    6    7       2
     8    6    8       1
     9    8    9       1
    10    9   10       1
    11    9   13       1
    12   10   11       1
    13   11   12       1
    14   11   14       1
    15   13   14       1
    16   14   15       1
    17   15   16       1
    18   16   17       1
    19   17   18      ar
    20   17   19      ar
    21   17   20       1
    22   20   21       1
    23   21   22      ar
    24   21   23      ar
    25   21   24       1
    26   24   25       1
    27   25   26      ar
    28   25   27      ar
    29   25   28      ar
    30    3   29       1
    31    4   30       1
    32    5   31       1
    33    9   32       1
    34   10   33       1
    35   10   34       1
    36   11   35       1
    37   12   36       1
    38   14   37       1
    39   15   38       1
    40   15   39       1
    41   20   40       1
@<TRIPOS>SUBSTRUCTURE
     1 DUP1968     1 GROUP             4 A     DUP     0 **** DUP A1968
