@<TRIPOS>MOLECULE
3ghu_LDT_1_ligand
   35    36     1     0     0
SMALL
NO_CHARGES


@<TRIPOS>ATOM
     1 C2          15.8860    -9.3620    18.0900 C.ar         1 LDT320   0.0000
     2 C3          16.1120   -10.3040    15.4200 C.ar         1 LDT320   0.0000
     3 C4          16.6820    -8.6960    17.1490 C.ar         1 LDT320   0.0000
     4 C5          15.1650   -10.5010    17.6340 C.ar         1 LDT320   0.0000
     5 C6          15.2360   -10.9690    16.3090 C.ar         1 LDT320   0.0000
     6 C7          16.8140    -9.1530    15.8410 C.ar         1 LDT320   0.0000
     7 BR8         14.9500    -3.7440     9.6450 Br           1 LDT320   0.0000
     8 F9          14.3910   -11.1280    18.4910 F            1 LDT320   0.0000
     9 C11         17.6420    -8.4020    14.8610 C.2          1 LDT320   0.0000
    10 C13         18.2880    -6.2790    13.9320 C.3          1 LDT320   0.0000
    11 F14         19.1800    -4.3410    12.1970 F            1 LDT320   0.0000
    12 O15         17.5250    -7.6530    17.5320 O.3          1 LDT320   0.0000
    13 S16         18.5470    -9.2990    13.7510 S.2          1 LDT320   0.0000
    14 N17         17.5610    -7.0970    14.8810 N.pl3        1 LDT320   0.0000
    15 C20         17.0620    -6.8110    18.5800 C.3          1 LDT320   0.0000
    16 C24         17.3990    -5.7210    12.8470 C.ar         1 LDT320   0.0000
    17 C25         15.8720    -4.6620    10.8310 C.ar         1 LDT320   0.0000
    18 C26         16.0590    -6.1440    12.6510 C.ar         1 LDT320   0.0000
    19 C27         17.9300    -4.7480    11.9990 C.ar         1 LDT320   0.0000
    20 C28         17.1830    -4.2280    10.9650 C.ar         1 LDT320   0.0000
    21 C29         15.2560    -5.6440    11.6300 C.ar         1 LDT320   0.0000
    22 C32         15.8550    -5.9730    18.0640 C.2          1 LDT320   0.0000
    23 O33         15.1610    -5.5180    19.0080 O.co2        1 LDT320   0.0000
    24 O34         15.6740    -5.8470    16.8490 O.co2        1 LDT320  -1.0000
    25 H1          15.8272    -9.0512    19.0387 H            1 LDT320   0.0000
    26 H2          16.2349   -10.6500    14.4898 H            1 LDT320   0.0000
    27 H3          14.6850   -11.7465    16.0058 H            1 LDT320   0.0000
    28 H4          19.0002    -6.8377    13.5069 H            1 LDT320   0.0000
    29 H5          18.7106    -5.5174    14.4232 H            1 LDT320   0.0000
    30 H6          16.9841    -6.6537    15.5670 H            1 LDT320   0.0000
    31 H7          17.7978    -6.1973    18.8665 H            1 LDT320   0.0000
    32 H8          16.7734    -7.3708    19.3567 H            1 LDT320   0.0000
    33 H9          15.6762    -6.8287    13.2712 H            1 LDT320   0.0000
    34 H10         17.5729    -3.5595    10.3316 H            1 LDT320   0.0000
    35 H11         14.3186    -5.9566    11.4766 H            1 LDT320   0.0000
@<TRIPOS>BOND
     1    1    3      ar
     2    1    4      ar
     3    2    5      ar
     4    2    6      ar
     5    3    6      ar
     6    3   12       1
     7    4    5      ar
     8    4    8       1
     9    6    9       1
    10    7   17       1
    11    9   13       2
    12    9   14       1
    13   10   14       1
    14   10   16       1
    15   11   19       1
    16   12   15       1
    17   15   22       1
    18   16   18      ar
    19   16   19      ar
    20   17   20      ar
    21   17   21      ar
    22   18   21      ar
    23   19   20      ar
    24   22   23      ar
    25   22   24      ar
    26    1   25       1
    27    2   26       1
    28    5   27       1
    29   10   28       1
    30   10   29       1
    31   14   30       1
    32   15   31       1
    33   15   32       1
    34   18   33       1
    35   20   34       1
    36   21   35       1
@<TRIPOS>SUBSTRUCTURE
     1 LDT320      1 GROUP             4 A     LDT     0 **** LDT A 320
