@<TRIPOS>MOLECULE
2a4x_BLM_1_ligand
   58    59     1     0     0
SMALL
NO_CHARGES


@<TRIPOS>ATOM
     1 NL           3.2480     3.0110    26.4310 N.4          1 BLM700   1.0000
     2 C37          4.5780     2.5170    26.1210 C.3          1 BLM700   0.0000
     3 C40          5.6690     3.5160    26.5150 C.2          1 BLM700   0.0000
     4 O40          5.4490     4.3820    27.3650 O.2          1 BLM700   0.0000
     5 C38          4.6610     2.1540    24.6280 C.3          1 BLM700   0.0000
     6 OH3          3.9750     3.1800    23.9180 O.3          1 BLM700   0.0000
     7 CD           4.0460     0.7910    24.3410 C.3          1 BLM700   0.0000
     8 NM           6.8740     3.4140    25.9360 N.am         1 BLM700   0.0000
     9 C42          8.0580     5.4970    25.2800 C.3          1 BLM700   0.0000
    10 C49         13.1580     9.8050    28.9820 C.2          1 BLM700   0.0000
    11 O49         14.0150    10.6670    29.1530 O.2          1 BLM700   0.0000
    12 C43          9.4580     5.9250    24.9900 C.2          1 BLM700   0.0000
    13 C41          7.9760     4.3150    26.2510 C.3          1 BLM700   0.0000
    14 S43         10.2650     5.6930    23.4740 S.3          1 BLM700   0.0000
    15 C44         11.6370     6.4830    24.0790 C.2          1 BLM700   0.0000
    16 C45         11.4010     6.8860    25.4030 C.2          1 BLM700   0.0000
    17 NN          10.1470     6.5390    25.8790 N.2          1 BLM700   0.0000
    18 C47         14.1950     9.0660    26.8190 C.2          1 BLM700   0.0000
    19 C48         13.2000     8.9400    27.7440 C.2          1 BLM700   0.0000
    20 NO          12.1610     8.1230    27.3480 N.2          1 BLM700   0.0000
    21 C46         12.3280     7.6520    26.1580 C.2          1 BLM700   0.0000
    22 S46         13.8240     8.1540    25.3900 S.3          1 BLM700   0.0000
    23 NP          12.1330     9.5510    29.7930 N.am         1 BLM700   0.0000
    24 C50         11.9070    10.2980    31.0100 C.3          1 BLM700   0.0000
    25 C51         12.9670    10.1130    32.0670 C.3          1 BLM700   0.0000
    26 C52         13.3390    11.4650    32.6960 C.3          1 BLM700   0.0000
    27 S53         13.6110    11.3290    34.4740 S.3          1 BLM700   1.0000
    28 C55         13.6500    12.9780    35.1310 C.3          1 BLM700   0.0000
    29 C54         12.1290    10.6460    35.1640 C.3          1 BLM700   0.0000
    30 HL1          2.5678     2.3304    26.1587 H            1 BLM700   0.0000
    31 HL2          3.1758     3.1797    27.4140 H            1 BLM700   0.0000
    32 H3           4.7244     1.6800    26.6482 H            1 BLM700   0.0000
    33 H4           5.6204     2.1461    24.3460 H            1 BLM700   0.0000
    34 HH3          4.0040     2.9838    22.9379 H            1 BLM700   0.0000
    35 HD1          4.1189     0.5915    23.3638 H            1 BLM700   0.0000
    36 HD2          4.5326     0.0895    24.8616 H            1 BLM700   0.0000
    37 HD3          3.0826     0.7969    24.6090 H            1 BLM700   0.0000
    38 HM           7.0228     2.6911    25.2612 H            1 BLM700   0.0000
    39 H10          7.6222     5.2322    24.4198 H            1 BLM700   0.0000
    40 H11          7.5656     6.2705    25.6789 H            1 BLM700   0.0000
    41 H12          8.8333     3.8021    26.2061 H            1 BLM700   0.0000
    42 H13          7.8472     4.6686    27.1775 H            1 BLM700   0.0000
    43 H14         12.4843     6.6382    23.5710 H            1 BLM700   0.0000
    44 H15         15.0246     9.6095    26.9470 H            1 BLM700   0.0000
    45 HP          11.4972     8.8178    29.5518 H            1 BLM700   0.0000
    46 H17         11.0299    10.0100    31.3943 H            1 BLM700   0.0000
    47 H18         11.8657    11.2695    30.7765 H            1 BLM700   0.0000
    48 H19         13.7810     9.7086    31.6500 H            1 BLM700   0.0000
    49 H20         12.6192     9.5030    32.7790 H            1 BLM700   0.0000
    50 H21         12.5956    12.1134    32.5315 H            1 BLM700   0.0000
    51 H22         14.1765    11.8020    32.2658 H            1 BLM700   0.0000
    52 H23         13.7998    12.9397    36.1190 H            1 BLM700   0.0000
    53 H24         14.3930    13.4907    34.7008 H            1 BLM700   0.0000
    54 H25         12.7792    13.4323    34.9432 H            1 BLM700   0.0000
    55 H26         12.2347    10.5521    36.1540 H            1 BLM700   0.0000
    56 H27         11.3591    11.2530    34.9670 H            1 BLM700   0.0000
    57 H28         11.9568     9.7474    34.7605 H            1 BLM700   0.0000
    58 HL3          3.0846     3.8631    25.9337 H            1 BLM700   0.0000
@<TRIPOS>BOND
     1    1    2       1
     2    2    3       1
     3    2    5       1
     4    3    4       2
     5    3    8      am
     6    5    6       1
     7    5    7       1
     8    8   13       1
     9    9   12       1
    10    9   13       1
    11   10   11       2
    12   10   19       1
    13   10   23      am
    14   12   14       1
    15   12   17       2
    16   14   15       1
    17   15   16       2
    18   16   17       1
    19   16   21       1
    20   18   19       2
    21   18   22       1
    22   19   20       1
    23   20   21       2
    24   21   22       1
    25   23   24       1
    26   24   25       1
    27   25   26       1
    28   26   27       1
    29   27   28       1
    30   27   29       1
    31    1   30       1
    32    1   31       1
    33    2   32       1
    34    5   33       1
    35    6   34       1
    36    7   35       1
    37    7   36       1
    38    7   37       1
    39    8   38       1
    40    9   39       1
    41    9   40       1
    42   13   41       1
    43   13   42       1
    44   15   43       1
    45   18   44       1
    46   23   45       1
    47   24   46       1
    48   24   47       1
    49   25   48       1
    50   25   49       1
    51   26   50       1
    52   26   51       1
    53   28   52       1
    54   28   53       1
    55   28   54       1
    56   29   55       1
    57   29   56       1
    58   29   57       1
    59    1   58       1
@<TRIPOS>SUBSTRUCTURE
     1 BLM700      1 GROUP             4 A     BLM     0 **** BLM A 700
