@<TRIPOS>MOLECULE
3sxj_SAM_2_ligand
   50    52     1     0     0
SMALL
NO_CHARGES


@<TRIPOS>ATOM
     1 N          -11.5100   -20.4670    11.8530 N.4          1 SAM258   1.0000
     2 CA         -11.9120   -20.5510    10.4410 C.3          1 SAM258   0.0000
     3 C          -11.1480   -19.5070     9.6210 C.2          1 SAM258   0.0000
     4 O          -10.6410   -18.5530    10.2510 O.co2        1 SAM258   0.0000
     5 OXT        -11.0900   -19.6850     8.3850 O.co2        1 SAM258  -1.0000
     6 CB         -13.4160   -20.2960    10.3280 C.3          1 SAM258   0.0000
     7 CG         -13.7580   -18.8710    10.7670 C.3          1 SAM258   0.0000
     8 SD         -15.5380   -18.4690    10.6320 S.3          1 SAM258   1.0000
     9 CE         -15.4970   -16.7070    10.8850 C.3          1 SAM258   0.0000
    10 C5'        -16.4310   -19.0040    12.1350 C.3          1 SAM258   0.0000
    11 C4'        -16.3810   -20.5190    12.3230 C.3          1 SAM258   0.0000
    12 O4'        -16.9820   -20.8170    13.5940 O.3          1 SAM258   0.0000
    13 C3'        -17.2130   -21.2410    11.2590 C.3          1 SAM258   0.0000
    14 O3'        -16.5450   -22.4310    10.8290 O.3          1 SAM258   0.0000
    15 C2'        -18.4840   -21.5920    12.0330 C.3          1 SAM258   0.0000
    16 O2'        -19.0840   -22.7670    11.4820 O.3          1 SAM258   0.0000
    17 C1'        -17.8360   -21.9480    13.3700 C.3          1 SAM258   0.0000
    18 N9         -18.8220   -22.0370    14.4700 N.pl3        1 SAM258   0.0000
    19 C8         -19.8920   -21.2580    14.6340 C.2          1 SAM258   0.0000
    20 N7         -20.5240   -21.5960    15.7540 N.2          1 SAM258   0.0000
    21 C5         -19.8580   -22.6060    16.3090 C.ar         1 SAM258   0.0000
    22 C6         -20.0380   -23.3680    17.4550 C.ar         1 SAM258   0.0000
    23 N6         -21.0730   -23.1390    18.2610 N.pl3        1 SAM258   0.0000
    24 N1         -19.1620   -24.3450    17.7300 N.ar         1 SAM258   0.0000
    25 C2         -18.1360   -24.5800    16.9280 C.ar         1 SAM258   0.0000
    26 N3         -17.9330   -23.8760    15.8300 N.ar         1 SAM258   0.0000
    27 C4         -18.7740   -22.8870    15.4900 C.ar         1 SAM258   0.0000
    28 H1         -12.0115   -21.1504    12.3836 H            1 SAM258   0.0000
    29 H2         -10.5281   -20.6394    11.9308 H            1 SAM258   0.0000
    30 HA         -11.7037   -21.4643    10.0910 H            1 SAM258   0.0000
    31 HB1        -13.9037   -20.9452    10.9117 H            1 SAM258   0.0000
    32 HB2        -13.7000   -20.4237     9.3777 H            1 SAM258   0.0000
    33 HG1        -13.2454   -18.2321    10.1934 H            1 SAM258   0.0000
    34 HG2        -13.4803   -18.7591    11.7211 H            1 SAM258   0.0000
    35 HE1        -16.4266   -16.3416    10.8364 H            1 SAM258   0.0000
    36 HE2        -15.1073   -16.5083    11.7843 H            1 SAM258   0.0000
    37 HE3        -14.9341   -16.2815    10.1764 H            1 SAM258   0.0000
    38 H5'1       -17.3868   -18.7195    12.0609 H            1 SAM258   0.0000
    39 H5'2       -16.0137   -18.5661    12.9313 H            1 SAM258   0.0000
    40 H4'        -15.4345   -20.8410    12.3019 H            1 SAM258   0.0000
    41 H3'        -17.4140   -20.6390    10.4862 H            1 SAM258   0.0000
    42 H15        -16.4145   -23.0410    11.6106 H            1 SAM258   0.0000
    43 H2'        -19.1220   -20.8250    12.1018 H            1 SAM258   0.0000
    44 H17        -18.4405   -23.5300    11.5433 H            1 SAM258   0.0000
    45 H1'        -17.3030   -22.7910    13.2970 H            1 SAM258   0.0000
    46 H19        -20.1759   -20.5303    14.0096 H            1 SAM258   0.0000
    47 H20        -21.1968   -23.6917    19.0851 H            1 SAM258   0.0000
    48 H21        -21.7264   -22.4143    18.0421 H            1 SAM258   0.0000
    49 H22        -17.4958   -25.3122    17.1605 H            1 SAM258   0.0000
    50 H23        -11.7171   -19.5541    12.2048 H            1 SAM258   0.0000
@<TRIPOS>BOND
     1    1    2       1
     2    2    3       1
     3    2    6       1
     4    3    4      ar
     5    3    5      ar
     6    6    7       1
     7    7    8       1
     8    8    9       1
     9    8   10       1
    10   10   11       1
    11   11   12       1
    12   11   13       1
    13   12   17       1
    14   13   14       1
    15   13   15       1
    16   15   16       1
    17   15   17       1
    18   17   18       1
    19   18   19       1
    20   18   27       1
    21   19   20       2
    22   20   21       1
    23   21   22      ar
    24   21   27      ar
    25   22   23       1
    26   22   24      ar
    27   24   25      ar
    28   25   26      ar
    29   26   27      ar
    30    1   28       1
    31    1   29       1
    32    2   30       1
    33    1   50       1
    34    6   31       1
    35    6   32       1
    36    7   33       1
    37    7   34       1
    38    9   35       1
    39    9   36       1
    40    9   37       1
    41   10   38       1
    42   10   39       1
    43   11   40       1
    44   13   41       1
    45   14   42       1
    46   15   43       1
    47   16   44       1
    48   17   45       1
    49   19   46       1
    50   23   47       1
    51   23   48       1
    52   25   49       1
@<TRIPOS>SUBSTRUCTURE
     1 SAM258      1 GROUP             4 B     SAM     0 **** SAM B 258
