@<TRIPOS>MOLECULE
2aa3_AP0_2_ligand
   69    73     1     0     0
SMALL
NO_CHARGES


@<TRIPOS>ATOM
     1 O7N          0.2970   -15.6440    30.1020 O.2          1 AP01407   0.0000
     2 C7N          0.7770   -16.3580    30.9620 C.2          1 AP01407   0.0000
     3 C8N          0.5360   -16.0600    32.2630 C.3          1 AP01407   0.0000
     4 C3N          1.5930   -17.5670    30.5520 C.ar         1 AP01407   0.0000
     5 C4N          1.8240   -17.8780    29.1980 C.ar         1 AP01407   0.0000
     6 C5N          2.5450   -19.0390    28.8470 C.ar         1 AP01407   0.0000
     7 C6N          3.0720   -19.8470    29.8690 C.ar         1 AP01407   0.0000
     8 C2N          2.1130   -18.4320    31.5150 C.ar         1 AP01407   0.0000
     9 N1N          2.8080   -19.5390    31.1820 N.ar         1 AP01407   1.0000
    10 C1D          3.3860   -20.3530    32.1440 C.3          1 AP01407   0.0000
    11 C2D          3.0530   -21.6000    32.5970 C.2          1 AP01407   0.0000
    12 O2D          1.8570   -22.2290    32.4760 O.2          1 AP01407   0.0000
    13 C3D          4.1700   -22.1520    33.4220 C.3          1 AP01407   0.0000
    14 O3D          3.5920   -22.1050    34.7530 O.3          1 AP01407   0.0000
    15 O4D          4.6590   -19.9140    32.7080 O.3          1 AP01407   0.0000
    16 C4D          5.2610   -21.0500    33.3490 C.3          1 AP01407   0.0000
    17 C5D          6.6000   -21.3450    32.6930 C.3          1 AP01407   0.0000
    18 O5D          6.5130   -21.6960    31.3020 O.3          1 AP01407   0.0000
    19 PN           7.7300   -22.4050    30.6560 P.3          1 AP01407   0.0000
    20 O1N          7.3100   -22.8340    29.3000 O.co2        1 AP01407   0.0000
    21 O2N          8.9960   -21.5320    30.8070 O.co2        1 AP01407  -1.0000
    22 O3           7.8770   -23.7660    31.6110 O.3          1 AP01407   0.0000
    23 PA           9.2100   -24.6950    31.7680 P.3          1 AP01407   0.0000
    24 O1A         10.0570   -24.7810    30.5470 O.co2        1 AP01407   0.0000
    25 O2A          8.8300   -25.9580    32.5230 O.co2        1 AP01407  -1.0000
    26 O5B         10.0300   -23.8840    32.8680 O.3          1 AP01407   0.0000
    27 C5B          9.6110   -23.9550    34.2440 C.3          1 AP01407   0.0000
    28 C4B         10.8800   -24.0200    35.0940 C.3          1 AP01407   0.0000
    29 O4B         10.5450   -23.8260    36.4570 O.3          1 AP01407   0.0000
    30 C1B         11.4580   -24.6310    37.1880 C.3          1 AP01407   0.0000
    31 C2B         11.5090   -25.9100    36.3910 C.3          1 AP01407   0.0000
    32 O2B         12.6660   -26.6060    36.7600 O.3          1 AP01407   0.0000
    33 C3B         11.5880   -25.3560    34.9740 C.3          1 AP01407   0.0000
    34 O3B         12.9390   -25.1230    34.5690 O.3          1 AP01407   0.0000
    35 N9A         11.0780   -24.8010    38.5990 N.pl3        1 AP01407   0.0000
    36 C8A         10.2090   -25.7100    39.0960 C.2          1 AP01407   0.0000
    37 N7A         10.1370   -25.5540    40.4420 N.2          1 AP01407   0.0000
    38 C5A         10.9700   -24.5500    40.7920 C.ar         1 AP01407   0.0000
    39 C6A         11.3130   -23.9830    42.0170 C.ar         1 AP01407   0.0000
    40 N6A         10.7300   -24.4610    43.1480 N.pl3        1 AP01407   0.0000
    41 C4A         11.5850   -24.0780    39.6190 C.ar         1 AP01407   0.0000
    42 N3A         12.5020   -23.0600    39.7010 N.ar         1 AP01407   0.0000
    43 C2A         12.7870   -22.5280    40.9010 C.ar         1 AP01407   0.0000
    44 N1A         12.2000   -22.9630    42.0510 N.ar         1 AP01407   0.0000
    45 H8N1         0.9920   -16.7303    32.8485 H            1 AP01407   0.0000
    46 H8N2         0.8873   -15.1461    32.4662 H            1 AP01407   0.0000
    47 H8N3        -0.4491   -16.0839    32.4335 H            1 AP01407   0.0000
    48 H4N          1.4754   -17.2732    28.4820 H            1 AP01407   0.0000
    49 H5N          2.6788   -19.2830    27.8865 H            1 AP01407   0.0000
    50 H6N          3.6357   -20.6412    29.6421 H            1 AP01407   0.0000
    51 H2N          1.9659   -18.2249    32.4822 H            1 AP01407   0.0000
    52 H1D          2.8695   -19.9111    32.8775 H            1 AP01407   0.0000
    53 H3D          4.4813   -23.0594    33.1397 H            1 AP01407   0.0000
    54 H10          3.1165   -22.9645    34.9404 H            1 AP01407   0.0000
    55 H4D          5.4569   -20.7774    34.2910 H            1 AP01407   0.0000
    56 H5D1         7.0273   -22.1056    33.1817 H            1 AP01407   0.0000
    57 H5D2         7.1750   -20.5310    32.7751 H            1 AP01407   0.0000
    58 H5B1         9.0559   -24.7734    34.3923 H            1 AP01407   0.0000
    59 H5B2         9.0784   -23.1431    34.4833 H            1 AP01407   0.0000
    60 H4B         11.5035   -23.2936    34.8050 H            1 AP01407   0.0000
    61 H1B         12.3594   -24.1995    37.1525 H            1 AP01407   0.0000
    62 H2B         10.6866   -26.4626    36.5263 H            1 AP01407   0.0000
    63 H19         13.3741   -25.9547    37.0328 H            1 AP01407   0.0000
    64 H3B         11.1171   -25.9555    34.3269 H            1 AP01407   0.0000
    65 H21         13.3984   -24.5549    35.2518 H            1 AP01407   0.0000
    66 H8A          9.7029   -26.3857    38.5600 H            1 AP01407   0.0000
    67 H6A1        10.9641   -24.0661    44.0364 H            1 AP01407   0.0000
    68 H6A2        10.0670   -25.2075    43.0917 H            1 AP01407   0.0000
    69 H2A         13.4546   -21.7853    40.9522 H            1 AP01407   0.0000
@<TRIPOS>BOND
     1    1    2       2
     2    2    3       1
     3    2    4       1
     4    4    5      ar
     5    4    8      ar
     6    5    6      ar
     7    6    7      ar
     8    7    9      ar
     9    8    9      ar
    10    9   10       1
    11   10   11       1
    12   10   15       1
    13   11   12       2
    14   11   13       1
    15   13   14       1
    16   13   16       1
    17   15   16       1
    18   16   17       1
    19   17   18       1
    20   18   19       1
    21   19   20      ar
    22   19   21      ar
    23   19   22       1
    24   22   23       1
    25   23   24      ar
    26   23   25      ar
    27   23   26       1
    28   26   27       1
    29   27   28       1
    30   28   29       1
    31   28   33       1
    32   29   30       1
    33   30   31       1
    34   30   35       1
    35   31   32       1
    36   31   33       1
    37   33   34       1
    38   35   36       1
    39   35   41       1
    40   36   37       2
    41   37   38       1
    42   38   39      ar
    43   38   41      ar
    44   39   40       1
    45   39   44      ar
    46   41   42      ar
    47   42   43      ar
    48   43   44      ar
    49    3   45       1
    50    3   46       1
    51    3   47       1
    52    5   48       1
    53    6   49       1
    54    7   50       1
    55    8   51       1
    56   10   52       1
    57   13   53       1
    58   14   54       1
    59   16   55       1
    60   17   56       1
    61   17   57       1
    62   43   69       1
    63   40   68       1
    64   27   58       1
    65   27   59       1
    66   28   60       1
    67   30   61       1
    68   31   62       1
    69   32   63       1
    70   33   64       1
    71   34   65       1
    72   36   66       1
    73   40   67       1
@<TRIPOS>SUBSTRUCTURE
     1 AP01407     1 GROUP             4 B     AP0     0 **** AP0 B1407
