@<TRIPOS>MOLECULE
4ri1_ACO_2_ligand
   85    87     1     0     0
SMALL
NO_CHARGES


@<TRIPOS>ATOM
     1 N1A        -33.4820     6.3820   -22.0340 N.ar         1 ACO1301   0.0000
     2 C2A        -33.1940     6.6400   -23.3500 C.ar         1 ACO1301   0.0000
     3 N3A        -32.0590     7.3350   -23.6750 N.ar         1 ACO1301   0.0000
     4 C4A        -31.2150     7.7690   -22.6870 C.ar         1 ACO1301   0.0000
     5 C5A        -31.5010     7.5130   -21.3820 C.ar         1 ACO1301   0.0000
     6 C6A        -32.6560     6.8080   -21.0540 C.ar         1 ACO1301   0.0000
     7 N6A        -33.2240     6.3860   -19.7910 N.pl3        1 ACO1301   0.0000
     8 N7A        -30.5120     8.0460   -20.6200 N.2          1 ACO1301   0.0000
     9 C8A        -29.6170     8.6350   -21.4560 C.2          1 ACO1301   0.0000
    10 N9A        -30.0450     8.4660   -22.7330 N.pl3        1 ACO1301   0.0000
    11 C1B        -29.3900     8.9300   -23.8840 C.3          1 ACO1301   0.0000
    12 C2B        -28.3630     9.7150   -23.6330 C.3          1 ACO1301   0.0000
    13 O2B        -28.0580    10.5050   -24.8550 O.3          1 ACO1301   0.0000
    14 C3B        -27.1920     8.7410   -23.3400 C.3          1 ACO1301   0.0000
    15 O3B        -26.0090     9.2400   -23.7220 O.3          1 ACO1301   0.0000
    16 P3B        -24.7790     9.2410   -22.6910 P.3          1 ACO1301   0.0000
    17 O7A        -23.5030     8.8140   -23.3990 O.co2        1 ACO1301   0.0000
    18 O8A        -25.0720     8.2810   -21.5590 O.co2        1 ACO1301  -1.0000
    19 O9A        -24.5780    10.6430   -22.1220 O.co2        1 ACO1301  -1.0000
    20 C4B        -27.5730     7.4430   -24.1570 C.3          1 ACO1301   0.0000
    21 O4B        -28.7270     7.6710   -24.7140 O.3          1 ACO1301   0.0000
    22 C5B        -27.6750     6.2380   -23.2000 C.3          1 ACO1301   0.0000
    23 O5B        -26.6550     5.3110   -23.5440 O.3          1 ACO1301   0.0000
    24 P1A        -27.0370     3.9770   -24.3660 P.3          1 ACO1301   0.0000
    25 O1A        -28.5150     3.6620   -24.3050 O.co2        1 ACO1301   0.0000
    26 O2A        -26.6360     4.1260   -25.8140 O.co2        1 ACO1301  -1.0000
    27 O3A        -26.2270     2.7960   -23.6640 O.3          1 ACO1301   0.0000
    28 P2A        -26.5780     2.1740   -22.2410 P.3          1 ACO1301   0.0000
    29 O4A        -25.5340     2.6000   -21.2240 O.co2        1 ACO1301   0.0000
    30 O5A        -27.9560     2.5900   -21.7440 O.co2        1 ACO1301  -1.0000
    31 O6A        -26.5710     0.5740   -22.4220 O.3          1 ACO1301   0.0000
    32 CBP        -28.0920    -1.2240   -22.3720 C.3          1 ACO1301   0.0000
    33 CCP        -27.5350    -0.0600   -23.2230 C.3          1 ACO1301   0.0000
    34 CDP        -29.2320    -1.9440   -23.1330 C.3          1 ACO1301   0.0000
    35 CEP        -26.9180    -2.2060   -22.0680 C.3          1 ACO1301   0.0000
    36 CAP        -28.6040    -0.6310   -21.0550 C.3          1 ACO1301   0.0000
    37 OAP        -29.5080     0.4120   -21.3170 O.3          1 ACO1301   0.0000
    38 C9P        -29.2750    -1.6530   -20.1640 C.2          1 ACO1301   0.0000
    39 O9P        -28.6060    -2.3110   -19.3850 O.2          1 ACO1301   0.0000
    40 N8P        -30.7060    -1.8110   -20.2320 N.am         1 ACO1301   0.0000
    41 C7P        -31.4220    -2.7300   -19.4160 C.3          1 ACO1301   0.0000
    42 C6P        -30.9240    -4.1750   -19.6180 C.3          1 ACO1301   0.0000
    43 C5P        -31.1300    -4.6320   -21.0850 C.2          1 ACO1301   0.0000
    44 O5P        -32.1320    -4.3380   -21.7270 O.2          1 ACO1301   0.0000
    45 N4P        -30.0950    -5.4380   -21.6920 N.am         1 ACO1301   0.0000
    46 C3P        -30.2440    -5.9000   -23.0450 C.3          1 ACO1301   0.0000
    47 C2P        -30.9310    -7.2760   -22.9940 C.3          1 ACO1301   0.0000
    48 S1P        -30.6900    -8.1030   -24.5540 S.3          1 ACO1301   0.0000
    49 C          -28.9200    -8.3830   -24.7300 C.2          1 ACO1301   0.0000
    50 O          -28.1370    -7.9620   -23.9010 O.2          1 ACO1301   0.0000
    51 CH3        -28.4400    -9.1530   -25.9440 C.3          1 ACO1301   0.0000
    52 H2A        -33.8106     6.3218   -24.0700 H            1 ACO1301   0.0000
    53 H6A1       -32.7575     6.6064   -18.9344 H            1 ACO1301   0.0000
    54 H6A2       -34.0829     5.8741   -19.7752 H            1 ACO1301   0.0000
    55 H8A        -28.7837     9.1124   -21.1774 H            1 ACO1301   0.0000
    56 H1B        -30.0428     9.4102   -24.4698 H            1 ACO1301   0.0000
    57 H2B        -28.5440    10.3111   -22.8508 H            1 ACO1301   0.0000
    58 H7         -27.2788    11.1061   -24.6775 H            1 ACO1301   0.0000
    59 H3B        -27.1677     8.5285   -22.3631 H            1 ACO1301   0.0000
    60 H4B        -26.8832     7.2654   -24.8588 H            1 ACO1301   0.0000
    61 H5B1       -28.5716     5.8054   -23.2946 H            1 ACO1301   0.0000
    62 H5B2       -27.5504     6.5438   -22.2561 H            1 ACO1301   0.0000
    63 HCP1       -27.1157    -0.4107   -24.0604 H            1 ACO1301   0.0000
    64 HCP2       -28.2665     0.5796   -23.4591 H            1 ACO1301   0.0000
    65 HDP1       -29.5843    -2.6943   -22.5736 H            1 ACO1301   0.0000
    66 HDP2       -29.9687    -1.2947   -23.3219 H            1 ACO1301   0.0000
    67 HDP3       -28.8793    -2.3081   -23.9950 H            1 ACO1301   0.0000
    68 HEP1       -27.2559    -2.9690   -21.5170 H            1 ACO1301   0.0000
    69 HEP2       -26.5444    -2.5551   -22.9274 H            1 ACO1301   0.0000
    70 HEP3       -26.2013    -1.7231   -21.5648 H            1 ACO1301   0.0000
    71 HAP        -27.8231    -0.2501   -20.5599 H            1 ACO1301   0.0000
    72 H21        -29.0099     1.2768   -21.3801 H            1 ACO1301   0.0000
    73 H8P        -31.2183    -1.2495   -20.8818 H            1 ACO1301   0.0000
    74 H7P1       -32.3928    -2.6853   -19.6517 H            1 ACO1301   0.0000
    75 H7P2       -31.2999    -2.4757   -18.4566 H            1 ACO1301   0.0000
    76 H6P1       -31.4334    -4.7846   -19.0107 H            1 ACO1301   0.0000
    77 H6P2       -29.9502    -4.2198   -19.3949 H            1 ACO1301   0.0000
    78 H4P        -29.2751    -5.6743   -21.1705 H            1 ACO1301   0.0000
    79 H3P1       -29.3463    -5.9829   -23.4778 H            1 ACO1301   0.0000
    80 H3P2       -30.8066    -5.2571   -23.5648 H            1 ACO1301   0.0000
    81 H2P1       -31.9094    -7.1562   -22.8257 H            1 ACO1301   0.0000
    82 H2P2       -30.5309    -7.8234   -22.2590 H            1 ACO1301   0.0000
    83 HH31       -27.4437    -9.2342   -25.9147 H            1 ACO1301   0.0000
    84 HH32       -28.8490   -10.0655   -25.9431 H            1 ACO1301   0.0000
    85 HH33       -28.7106    -8.6673   -26.7752 H            1 ACO1301   0.0000
@<TRIPOS>BOND
     1    1    2      ar
     2    1    6      ar
     3    2    3      ar
     4    3    4      ar
     5    4    5      ar
     6    4   10       1
     7    5    6      ar
     8    5    8       1
     9    6    7       1
    10    8    9       2
    11    9   10       1
    12   10   11       1
    13   11   12       1
    14   11   21       1
    15   12   13       1
    16   12   14       1
    17   14   15       1
    18   14   20       1
    19   15   16       1
    20   16   17      ar
    21   16   18      ar
    22   16   19      ar
    23   20   21       1
    24   20   22       1
    25   22   23       1
    26   23   24       1
    27   24   25      ar
    28   24   26      ar
    29   24   27       1
    30   27   28       1
    31   28   29      ar
    32   28   30      ar
    33   28   31       1
    34   31   33       1
    35   32   33       1
    36   32   34       1
    37   32   35       1
    38   32   36       1
    39   36   37       1
    40   36   38       1
    41   38   39       2
    42   38   40      am
    43   40   41       1
    44   41   42       1
    45   42   43       1
    46   43   44       2
    47   43   45      am
    48   45   46       1
    49   46   47       1
    50   47   48       1
    51   48   49       1
    52   49   50       2
    53   49   51       1
    54    2   52       1
    55    7   53       1
    56    7   54       1
    57    9   55       1
    58   11   56       1
    59   12   57       1
    60   13   58       1
    61   14   59       1
    62   51   85       1
    63   51   84       1
    64   20   60       1
    65   22   61       1
    66   22   62       1
    67   51   83       1
    68   47   82       1
    69   33   63       1
    70   33   64       1
    71   34   65       1
    72   34   66       1
    73   34   67       1
    74   35   68       1
    75   35   69       1
    76   35   70       1
    77   36   71       1
    78   37   72       1
    79   40   73       1
    80   41   74       1
    81   41   75       1
    82   42   76       1
    83   42   77       1
    84   45   78       1
    85   46   79       1
    86   46   80       1
    87   47   81       1
@<TRIPOS>SUBSTRUCTURE
     1 ACO1301     1 GROUP             4 B     ACO     0 **** ACO B1301
