@<TRIPOS>MOLECULE
3opx_U5P_1_ligand
   25    25     1     0     0
SMALL
NO_CHARGES


@<TRIPOS>ATOM
     1 N1           7.0440    -6.0860   -28.1820 N.4          1 U5P265   1.0000
     2 C1'          7.8060    -5.9690   -26.9650 C.3          1 U5P265   0.0000
     3 C2'          8.8260    -4.8370   -27.0140 C.3          1 U5P265   0.0000
     4 O2'          9.9580    -5.1800   -27.7920 O.3          1 U5P265   0.0000
     5 C3'          9.1170    -4.5950   -25.5340 C.3          1 U5P265   0.0000
     6 C4'          7.8220    -5.0030   -24.8190 C.3          1 U5P265   0.0000
     7 O3'         10.1790    -5.4670   -25.1480 O.3          1 U5P265   0.0000
     8 O4'          7.0330    -5.7380   -25.8000 O.3          1 U5P265   0.0000
     9 C5'          6.9970    -3.8820   -24.2210 C.3          1 U5P265   0.0000
    10 O5'          6.3880    -4.2670   -22.9840 O.3          1 U5P265   0.0000
    11 P            5.2920    -3.4290   -22.2270 P.3          1 U5P265   0.0000
    12 O1P          4.5670    -4.4090   -21.3660 O.co2        1 U5P265   0.0000
    13 O2P          4.3520    -2.8060   -23.2230 O.co2        1 U5P265  -1.0000
    14 O3P          5.9170    -2.3420   -21.4490 O.co2        1 U5P265  -1.0000
    15 H1           6.7785    -7.0404   -28.3186 H            1 U5P265   0.0000
    16 H2           6.2237    -5.5178   -28.1176 H            1 U5P265   0.0000
    17 H1'          8.3062    -6.8251   -26.8346 H            1 U5P265   0.0000
    18 H2'          8.3949    -4.0224   -27.4019 H            1 U5P265   0.0000
    19 H5          10.7622    -4.7017   -27.4393 H            1 U5P265   0.0000
    20 H3'          9.3467    -3.6378   -25.3577 H            1 U5P265   0.0000
    21 H4'          8.0631    -5.6347   -24.0822 H            1 U5P265   0.0000
    22 H8          11.0558    -5.0076   -25.2899 H            1 U5P265   0.0000
    23 H5'1         6.2792    -3.6279   -24.8692 H            1 U5P265   0.0000
    24 H5'2         7.5919    -3.0951   -24.0571 H            1 U5P265   0.0000
    25 H11          7.6009    -5.7810   -28.9546 H            1 U5P265   0.0000
@<TRIPOS>BOND
     1    1    2       1
     2    2    3       1
     3    2    8       1
     4    3    4       1
     5    3    5       1
     6    5    6       1
     7    5    7       1
     8    6    8       1
     9    6    9       1
    10    9   10       1
    11   10   11       1
    12   11   12      ar
    13   11   13      ar
    14   11   14      ar
    15    1   15       1
    16    1   16       1
    17    2   17       1
    18    3   18       1
    19    4   19       1
    20    5   20       1
    21    6   21       1
    22    7   22       1
    23    9   23       1
    24    9   24       1
    25    1   25       1
@<TRIPOS>SUBSTRUCTURE
     1 U5P265      1 GROUP             4 A     U5P     0 **** U5P A 265
