@<TRIPOS>MOLECULE
4uov_AZM_2_ligand
   18    18     1     0     0
SMALL
NO_CHARGES


@<TRIPOS>ATOM
     1 C1         -37.5180    39.5010    -8.7240 C.2          1 AZM299   0.0000
     2 C2         -36.1970    38.3170   -10.2450 C.2          1 AZM299   0.0000
     3 C3         -35.9560    37.7320   -12.5690 C.2          1 AZM299   0.0000
     4 C4         -35.8600    36.4160   -13.2740 C.3          1 AZM299   0.0000
     5 N1         -39.6130    39.5450    -7.1270 N.3          1 AZM299  -1.0000
     6 N2         -36.0430    37.8940    -9.0140 N.2          1 AZM299   0.0000
     7 N3         -36.8180    38.5940    -8.1200 N.2          1 AZM299   0.0000
     8 N4         -35.5130    37.7330   -11.2830 N.am         1 AZM299   0.0000
     9 O1         -37.7330    41.2180    -6.9120 O.2          1 AZM299   0.0000
    10 O2         -39.3500    41.3790    -8.7860 O.2          1 AZM299   0.0000
    11 O3         -36.3990    38.7620   -13.0770 O.2          1 AZM299   0.0000
    12 S1         -38.6100    40.5760    -7.8450 S.o2         1 AZM299   0.0000
    13 S2         -37.3170    39.6150   -10.4280 S.3          1 AZM299   0.0000
    14 H1         -36.2063    36.5117   -14.2072 H            1 AZM299   0.0000
    15 H2         -34.9047    36.1215   -13.3015 H            1 AZM299   0.0000
    16 H3         -36.4048    35.7351   -12.7845 H            1 AZM299   0.0000
    17 H4         -39.2502    39.2980    -6.2285 H            1 AZM299   0.0000
    18 H5         -34.6421    37.2842   -11.0824 H            1 AZM299   0.0000
@<TRIPOS>BOND
     1    1    7       2
     2    1   12       1
     3    1   13       1
     4    2    6       2
     5    2    8       1
     6    2   13       1
     7    3    4       1
     8    3    8      am
     9    3   11       2
    10    5   12       1
    11    6    7       1
    12    9   12       2
    13   10   12       2
    14    4   14       1
    15    4   15       1
    16    4   16       1
    17    8   18       1
    18    5   17       1
@<TRIPOS>SUBSTRUCTURE
     1 AZM299      1 GROUP             4 B     AZM     0 **** AZM B 299
