@<TRIPOS>MOLECULE
3lf0_ATP_2_ligand
   43    45     1     0     0
SMALL
NO_CHARGES


@<TRIPOS>ATOM
     1 PG          18.8470   -17.4830   -20.5480 P.3          1 ATP701   0.0000
     2 O1G         19.0800   -15.9830   -20.5760 O.co2        1 ATP701   0.0000
     3 O2G         17.6970   -17.8980   -21.4550 O.co2        1 ATP701  -1.0000
     4 O3G         20.0600   -18.4060   -20.5900 O.co2        1 ATP701  -1.0000
     5 PB          19.0610   -17.7030   -17.7140 P.3          1 ATP701   0.0000
     6 O1B         18.0990   -17.9590   -16.5950 O.co2        1 ATP701   0.0000
     7 O2B         19.8710   -16.4300   -17.7610 O.co2        1 ATP701  -1.0000
     8 O3B         18.2240   -17.7620   -19.0860 O.3          1 ATP701   0.0000
     9 PA          20.0030   -20.4150   -17.1800 P.3          1 ATP701   0.0000
    10 O1A         18.6550   -21.1060   -17.2520 O.co2        1 ATP701   0.0000
    11 O2A         21.2440   -21.1620   -17.6870 O.co2        1 ATP701  -1.0000
    12 O3A         19.9960   -18.9960   -17.9540 O.3          1 ATP701   0.0000
    13 O5'         20.3300   -20.0170   -15.6340 O.3          1 ATP701   0.0000
    14 C5'         21.2440   -18.9880   -15.2390 C.3          1 ATP701   0.0000
    15 C4'         21.6740   -19.2730   -13.7970 C.3          1 ATP701   0.0000
    16 O4'         20.6100   -19.0000   -12.8510 O.3          1 ATP701   0.0000
    17 C3'         22.1440   -20.7130   -13.5120 C.3          1 ATP701   0.0000
    18 O3'         23.5400   -20.9210   -13.8090 O.3          1 ATP701   0.0000
    19 C2'         21.8370   -20.8700   -12.0310 C.3          1 ATP701   0.0000
    20 O2'         22.8370   -20.2140   -11.2020 O.3          1 ATP701   0.0000
    21 C1'         20.5950   -20.0170   -11.8600 C.3          1 ATP701   0.0000
    22 N9          19.3270   -20.7590   -11.9610 N.pl3        1 ATP701   0.0000
    23 C8          18.7560   -21.2350   -13.0790 C.2          1 ATP701   0.0000
    24 N7          17.5920   -21.8560   -12.7770 N.2          1 ATP701   0.0000
    25 C5          17.3830   -21.7620   -11.4470 C.ar         1 ATP701   0.0000
    26 C6          16.3240   -22.1740   -10.4500 C.ar         1 ATP701   0.0000
    27 N6          15.2040   -22.8450   -10.8090 N.pl3        1 ATP701   0.0000
    28 N1          16.5290   -21.8730    -9.1430 N.ar         1 ATP701   0.0000
    29 C2          17.6170   -21.1990    -8.7330 C.ar         1 ATP701   0.0000
    30 N3          18.5760   -20.7860    -9.5810 N.ar         1 ATP701   0.0000
    31 C4          18.5350   -21.0360   -10.9180 C.ar         1 ATP701   0.0000
    32 H5'1        20.7949   -18.0960   -15.2902 H            1 ATP701   0.0000
    33 H5'2        22.0433   -18.9938   -15.8399 H            1 ATP701   0.0000
    34 H4'         22.4338   -18.6595   -13.5819 H            1 ATP701   0.0000
    35 H3'         21.5897   -21.3570   -14.0392 H            1 ATP701   0.0000
    36 H5          24.0408   -20.0662   -13.6726 H            1 ATP701   0.0000
    37 H2'         21.6869   -21.8234   -11.7691 H            1 ATP701   0.0000
    38 H7          23.2140   -19.4287   -11.6931 H            1 ATP701   0.0000
    39 H1'         20.6339   -19.5810   -10.9609 H            1 ATP701   0.0000
    40 H9          19.1352   -21.1440   -13.9999 H            1 ATP701   0.0000
    41 H10         14.5290   -23.0980   -10.1160 H            1 ATP701   0.0000
    42 H11         15.0519   -23.0875   -11.7672 H            1 ATP701   0.0000
    43 H12         17.7176   -20.9965    -7.7589 H            1 ATP701   0.0000
@<TRIPOS>BOND
     1    1    2      ar
     2    1    3      ar
     3    1    4      ar
     4    1    8       1
     5    5    6      ar
     6    5    7      ar
     7    5    8       1
     8    5   12       1
     9    9   10      ar
    10    9   11      ar
    11    9   12       1
    12    9   13       1
    13   13   14       1
    14   14   15       1
    15   15   16       1
    16   15   17       1
    17   16   21       1
    18   17   18       1
    19   17   19       1
    20   19   20       1
    21   19   21       1
    22   21   22       1
    23   22   23       1
    24   22   31       1
    25   23   24       2
    26   24   25       1
    27   25   26      ar
    28   25   31      ar
    29   26   27       1
    30   26   28      ar
    31   28   29      ar
    32   29   30      ar
    33   30   31      ar
    34   29   43       1
    35   27   42       1
    36   27   41       1
    37   23   40       1
    38   14   32       1
    39   14   33       1
    40   15   34       1
    41   17   35       1
    42   18   36       1
    43   19   37       1
    44   20   38       1
    45   21   39       1
@<TRIPOS>SUBSTRUCTURE
     1 ATP701      1 GROUP             4 B     ATP     0 **** ATP B 701
