@<TRIPOS>MOLECULE
3upr_1KX_2_ligand
   42    45     1     0     0
SMALL
NO_CHARGES


@<TRIPOS>ATOM
     1 C           45.4710     9.9860    49.0380 C.3          1 1KX277   0.0000
     2 N           47.3550     8.9750    50.2390 N.pl3        1 1KX277   0.0000
     3 O           54.3230     8.4880    48.8230 O.3          1 1KX277   0.0000
     4 C01         50.7840    10.1590    51.3470 C.ar         1 1KX277   0.0000
     5 N01         50.4360    11.4700    51.7410 N.ar         1 1KX277   1.0000
     6 C02         49.8090     9.3100    50.8530 C.ar         1 1KX277   0.0000
     7 N02         50.4350     8.1080    50.5440 N.2          1 1KX277   0.0000
     8 C03         51.7730     8.2210    50.8520 C.2          1 1KX277   0.0000
     9 N03         52.0010     9.4530    51.3390 N.pl3        1 1KX277   0.0000
    10 C04         53.2950    10.0000    51.7900 C.3          1 1KX277   0.0000
    11 N04         48.1730    11.1030    51.1750 N.ar         1 1KX277   0.0000
    12 C05         54.2320     8.8920    52.2000 C.3          1 1KX277   0.0000
    13 N05         48.8020    13.2790    52.0740 N.pl3        1 1KX277   0.0000
    14 C06         55.5290     9.0910    51.4880 C.3          1 1KX277   0.0000
    15 C07         55.3140    10.0910    50.4090 C.3          1 1KX277   0.0000
    16 C08         55.3310     9.3920    49.0920 C.3          1 1KX277   0.0000
    17 C09         54.0040    10.8110    50.7450 C.3          1 1KX277   0.0000
    18 C10         48.4590     9.7990    50.7600 C.ar         1 1KX277   0.0000
    19 C11         49.1390    11.9140    51.6490 C.ar         1 1KX277   0.0000
    20 C12         46.0200     9.4890    50.3360 C.3          1 1KX277   0.0000
    21 C13         45.0400     8.6620    49.5740 C.3          1 1KX277   0.0000
    22 H1          46.0593    10.0313    48.2306 H            1 1KX277   0.0000
    23 H2          44.8304    10.7538    49.0271 H            1 1KX277   0.0000
    24 H3          47.5319     8.0805    49.8284 H            1 1KX277   0.0000
    25 H4          54.7201     7.5850    48.6588 H            1 1KX277   0.0000
    26 H5          52.4608     7.5050    50.7330 H            1 1KX277   0.0000
    27 H6          53.1306    10.5842    52.5848 H            1 1KX277   0.0000
    28 H7          53.8402     8.0069    51.9488 H            1 1KX277   0.0000
    29 H8          54.3803     8.9224    53.1885 H            1 1KX277   0.0000
    30 H9          47.8588    13.6047    52.0081 H            1 1KX277   0.0000
    31 H10         49.5157    13.8826    52.4292 H            1 1KX277   0.0000
    32 H11         55.8347     8.2252    51.0919 H            1 1KX277   0.0000
    33 H12         56.2195     9.4267    52.1287 H            1 1KX277   0.0000
    34 H13         56.0615    10.7549    50.4312 H            1 1KX277   0.0000
    35 H14         55.2964    10.0953    48.3820 H            1 1KX277   0.0000
    36 H15         56.1979     8.8975    49.0294 H            1 1KX277   0.0000
    37 H16         54.1988    11.7262    51.0978 H            1 1KX277   0.0000
    38 H17         53.4351    10.8837    49.9258 H            1 1KX277   0.0000
    39 H18         45.7286     9.9271    51.1864 H            1 1KX277   0.0000
    40 H19         45.3390     7.8199    49.1252 H            1 1KX277   0.0000
    41 H20         44.1100     8.5424    49.9217 H            1 1KX277   0.0000
    42 H21         51.1435    12.0836    52.0918 H            1 1KX277   0.0000
@<TRIPOS>BOND
     1    1   20       1
     2    1   21       1
     3    2   18       1
     4    2   20       1
     5    3   16       1
     6    4    5      ar
     7    4    6      ar
     8    4    9       1
     9    5   19      ar
    10    6    7       1
    11    6   18      ar
    12    7    8       2
    13    8    9       1
    14    9   10       1
    15   10   12       1
    16   10   17       1
    17   11   18      ar
    18   11   19      ar
    19   12   14       1
    20   13   19       1
    21   14   15       1
    22   15   16       1
    23   15   17       1
    24   20   21       1
    25    1   22       1
    26    1   23       1
    27    2   24       1
    28    3   25       1
    29    8   26       1
    30   10   27       1
    31   12   28       1
    32   12   29       1
    33   13   30       1
    34   13   31       1
    35   14   32       1
    36   14   33       1
    37   15   34       1
    38   16   35       1
    39   16   36       1
    40   17   37       1
    41   17   38       1
    42   20   39       1
    43   21   40       1
    44   21   41       1
    45    5   42       1
@<TRIPOS>SUBSTRUCTURE
     1 1KX277      1 GROUP             4 C     1KX     0 **** 1KX C 277
