@<TRIPOS>MOLECULE
2oat_PFM_2_ligand
   42    42     1     0     0
SMALL
NO_CHARGES


@<TRIPOS>ATOM
     1 N           57.3890    25.1600     9.7890 N.3          1 PFM440   0.0000
     2 CA          56.0980    25.7350     9.3010 C.3          1 PFM440   0.0000
     3 C           55.1160    25.9770    10.4600 C.2          1 PFM440   0.0000
     4 OA          54.4500    27.0230    10.4640 O.co2        1 PFM440   0.0000
     5 OB          55.0340    25.0810    11.3440 O.co2        1 PFM440  -1.0000
     6 CB          55.4590    24.8000     8.2800 C.3          1 PFM440   0.0000
     7 CG          54.6580    25.4820     7.2300 C.3          1 PFM440   0.0000
     8 CD          55.2800    26.4380     6.2240 C.2          1 PFM440   0.0000
     9 OE          56.5880    26.7910     6.3320 O.2          1 PFM440   0.0000
    10 C4B         54.4850    26.9880     5.2570 C.2          1 PFM440   0.0000
    11 C4A         54.4720    28.2750     4.9290 C.2          1 PFM440   0.0000
    12 C4          53.6700    28.9030     4.0340 C.ar         1 PFM440   0.0000
    13 C3          53.1420    28.3010     2.9090 C.ar         1 PFM440   0.0000
    14 O3          53.4030    27.0120     2.6240 O.3          1 PFM440   0.0000
    15 C2          52.2480    28.9870     2.0850 C.ar         1 PFM440   0.0000
    16 C2A         51.7010    28.3570     0.7970 C.3          1 PFM440   0.0000
    17 N1          51.8530    30.2670     2.3940 N.ar         1 PFM440   1.0000
    18 C6          52.3890    30.8700     3.5130 C.ar         1 PFM440   0.0000
    19 C5          53.2570    30.1980     4.3170 C.ar         1 PFM440   0.0000
    20 C5A         53.7340    30.8960     5.6130 C.3          1 PFM440   0.0000
    21 P           55.9260    31.9080     6.6660 P.3          1 PFM440   0.0000
    22 OP1         55.0030    32.6690     7.5190 O.co2        1 PFM440   0.0000
    23 OP2         56.2910    30.5220     7.3120 O.co2        1 PFM440  -1.0000
    24 OP3         57.1120    32.6160     6.0660 O.co2        1 PFM440  -1.0000
    25 OP4         55.0710    31.3640     5.3680 O.3          1 PFM440   0.0000
    26 H1          57.2142    24.2867    10.2437 H            1 PFM440   0.0000
    27 HA          56.2874    26.6104     8.8562 H            1 PFM440   0.0000
    28 HB1         54.8578    24.1683     8.7694 H            1 PFM440   0.0000
    29 HB2         56.1884    24.2848     7.8300 H            1 PFM440   0.0000
    30 HG1         53.9544    26.0042     7.7120 H            1 PFM440   0.0000
    31 HG2         54.2262    24.7564     6.6942 H            1 PFM440   0.0000
    32 H4B         53.8685    26.3768     4.7606 H            1 PFM440   0.0000
    33 H4A         55.1371    28.8534     5.4013 H            1 PFM440   0.0000
    34 H9          53.9877    26.4741     3.2313 H            1 PFM440   0.0000
    35 H2A1        51.0800    29.0001     0.3490 H            1 PFM440   0.0000
    36 H2A2        52.4600    28.1433     0.1820 H            1 PFM440   0.0000
    37 H2A3        51.2066    27.5171     1.0207 H            1 PFM440   0.0000
    38 H13         52.1368    31.8117     3.7358 H            1 PFM440   0.0000
    39 H5A1        53.7309    30.2473     6.3740 H            1 PFM440   0.0000
    40 H5A2        53.1343    31.6664     5.8293 H            1 PFM440   0.0000
    41 H16         58.0036    25.0150     9.0136 H            1 PFM440   0.0000
    42 H17         51.1917    30.7503     1.8203 H            1 PFM440   0.0000
@<TRIPOS>BOND
     1    1    2       1
     2    2    3       1
     3    2    6       1
     4    3    4      ar
     5    3    5      ar
     6    6    7       1
     7    7    8       1
     8    8    9       2
     9    8   10       1
    10   10   11       2
    11   11   12       1
    12   12   13      ar
    13   12   19      ar
    14   13   14       1
    15   13   15      ar
    16   15   16       1
    17   15   17      ar
    18   17   18      ar
    19   18   19      ar
    20   19   20       1
    21   20   25       1
    22   21   22      ar
    23   21   23      ar
    24   21   24      ar
    25   21   25       1
    26   20   40       1
    27    1   26       1
    28    2   27       1
    29    1   41       1
    30    6   28       1
    31    6   29       1
    32    7   30       1
    33    7   31       1
    34   10   32       1
    35   11   33       1
    36   14   34       1
    37   16   35       1
    38   16   36       1
    39   16   37       1
    40   18   38       1
    41   20   39       1
    42   17   42       1
@<TRIPOS>SUBSTRUCTURE
     1 PFM440      1 GROUP             4 B     PFM     0 **** PFM B 440
