@<TRIPOS>MOLECULE
2btd_ADP_1_ligand
   39    41     1     0     0
SMALL
NO_CHARGES


@<TRIPOS>ATOM
     1 PB          -9.1670    10.3800    36.4360 P.3          1 ADP1211   0.0000
     2 O1B         -7.7010    10.4310    36.8940 O.co2        1 ADP1211   0.0000
     3 O2B        -10.1460    10.0880    37.5890 O.co2        1 ADP1211  -1.0000
     4 O3B         -9.5130    11.6440    35.7550 O.co2        1 ADP1211  -1.0000
     5 PA          -8.6140     9.0610    34.0890 P.3          1 ADP1211   0.0000
     6 O1A         -7.5700    10.0730    33.9290 O.co2        1 ADP1211   0.0000
     7 O2A         -8.0320     7.6440    33.9510 O.co2        1 ADP1211  -1.0000
     8 O3A         -9.3940     9.1360    35.4670 O.3          1 ADP1211   0.0000
     9 O5'         -9.8030     9.3260    33.0420 O.3          1 ADP1211   0.0000
    10 C5'        -10.0980    10.6250    32.5910 C.3          1 ADP1211   0.0000
    11 C4'        -11.0730    10.5280    31.4300 C.3          1 ADP1211   0.0000
    12 O4'        -12.3680    10.1180    31.8060 O.3          1 ADP1211   0.0000
    13 C3'        -11.3200    11.8630    30.7620 C.3          1 ADP1211   0.0000
    14 O3'        -10.3290    12.1450    29.8240 O.3          1 ADP1211   0.0000
    15 C2'        -12.6200    11.6350    30.0170 C.3          1 ADP1211   0.0000
    16 O2'        -12.3990    11.2320    28.6880 O.3          1 ADP1211   0.0000
    17 C1'        -13.1630    10.3840    30.6650 C.3          1 ADP1211   0.0000
    18 N9         -14.6180    10.4810    30.8900 N.pl3        1 ADP1211   0.0000
    19 C8         -15.6660    10.1140    30.0490 C.2          1 ADP1211   0.0000
    20 N7         -16.8420    10.3740    30.6710 N.2          1 ADP1211   0.0000
    21 C5         -16.5300    10.8960    31.8950 C.ar         1 ADP1211   0.0000
    22 C6         -17.2940    11.3450    32.9540 C.ar         1 ADP1211   0.0000
    23 N6         -18.6120    11.4050    32.8700 N.pl3        1 ADP1211   0.0000
    24 N1         -16.6540    11.8320    34.0860 N.ar         1 ADP1211   0.0000
    25 C2         -15.2670    11.8780    34.1670 C.ar         1 ADP1211   0.0000
    26 N3         -14.5130    11.4310    33.1030 N.ar         1 ADP1211   0.0000
    27 C4         -15.1510    10.9650    32.0310 C.ar         1 ADP1211   0.0000
    28 H5'1        -9.2579    11.0749    32.2881 H            1 ADP1211   0.0000
    29 H5'2       -10.5102    11.1534    33.3333 H            1 ADP1211   0.0000
    30 H4'        -10.7115     9.8866    30.7533 H            1 ADP1211   0.0000
    31 H3'        -11.4075    12.5981    31.4343 H            1 ADP1211   0.0000
    32 H5         -10.7135    12.7067    29.0914 H            1 ADP1211   0.0000
    33 H2'        -13.2473    12.4106    30.0870 H            1 ADP1211   0.0000
    34 H7         -12.3479    12.0387    28.0992 H            1 ADP1211   0.0000
    35 H1'        -13.0148     9.6324    30.0222 H            1 ADP1211   0.0000
    36 H9         -15.5668     9.7221    29.1343 H            1 ADP1211   0.0000
    37 H10        -19.1482    11.7330    33.6478 H            1 ADP1211   0.0000
    38 H11        -19.0728    11.1224    32.0287 H            1 ADP1211   0.0000
    39 H12        -14.8206    12.2318    34.9889 H            1 ADP1211   0.0000
@<TRIPOS>BOND
     1    1    2      ar
     2    1    3      ar
     3    1    4      ar
     4    1    8       1
     5    5    6      ar
     6    5    7      ar
     7    5    8       1
     8    5    9       1
     9    9   10       1
    10   10   11       1
    11   11   12       1
    12   11   13       1
    13   12   17       1
    14   13   14       1
    15   13   15       1
    16   15   16       1
    17   15   17       1
    18   17   18       1
    19   18   19       1
    20   18   27       1
    21   19   20       2
    22   20   21       1
    23   21   22      ar
    24   21   27      ar
    25   22   23       1
    26   22   24      ar
    27   24   25      ar
    28   25   26      ar
    29   26   27      ar
    30   25   39       1
    31   23   38       1
    32   23   37       1
    33   10   28       1
    34   10   29       1
    35   11   30       1
    36   13   31       1
    37   14   32       1
    38   15   33       1
    39   16   34       1
    40   17   35       1
    41   19   36       1
@<TRIPOS>SUBSTRUCTURE
     1 ADP1211     1 GROUP             4 A     ADP     0 **** ADP A1211
