@<TRIPOS>MOLECULE
3rh7_FMN_1_ligand
   50    52     1     0     0
SMALL
NO_CHARGES


@<TRIPOS>ATOM
     1 N1          60.4170    10.8700   102.8280 N.2          1 FMN321   0.0000
     2 C2          61.0420    10.2040   103.8710 C.2          1 FMN321   0.0000
     3 O2          60.6610     9.0640   104.1910 O.2          1 FMN321   0.0000
     4 N3          62.1370    10.8030   104.4860 N.pl3        1 FMN321   0.0000
     5 C4          62.6590    12.0810   104.2130 C.2          1 FMN321   0.0000
     6 O4          63.6390    12.5910   104.7650 O.2          1 FMN321   0.0000
     7 C4A         61.9130    12.8340   103.1080 C.2          1 FMN321   0.0000
     8 N5          62.3210    14.0440   102.7620 N.2          1 FMN321   0.0000
     9 C5A         61.6980    14.6900   101.6650 C.ar         1 FMN321   0.0000
    10 C6          62.2100    15.9900   101.3260 C.ar         1 FMN321   0.0000
    11 C7          61.7140    16.7260   100.2120 C.ar         1 FMN321   0.0000
    12 C7M         62.2860    18.0740    99.8820 C.3          1 FMN321   0.0000
    13 C8          60.6740    16.1460    99.4480 C.ar         1 FMN321   0.0000
    14 C8M         60.1300    16.8810    98.2900 C.3          1 FMN321   0.0000
    15 C9          60.1210    14.8520    99.7770 C.ar         1 FMN321   0.0000
    16 C9A         60.5950    14.0770   100.8970 C.ar         1 FMN321   0.0000
    17 N10         60.1040    12.7530   101.2750 N.pl3        1 FMN321   0.0000
    18 C10         60.7470    12.0940   102.3840 C.2          1 FMN321   0.0000
    19 C1'         58.9730    12.1010   100.5050 C.3          1 FMN321   0.0000
    20 C2'         59.4490    10.7850    99.7470 C.3          1 FMN321   0.0000
    21 O2'         60.4760    10.9460    98.7660 O.3          1 FMN321   0.0000
    22 C3'         58.4300     9.8030    99.1060 C.3          1 FMN321   0.0000
    23 O3'         57.1320    10.3640    98.8410 O.3          1 FMN321   0.0000
    24 C4'         58.4160     8.3660    99.7200 C.3          1 FMN321   0.0000
    25 O4'         58.7250     8.2430   101.1550 O.3          1 FMN321   0.0000
    26 C5'         59.3100     7.4810    98.8820 C.3          1 FMN321   0.0000
    27 O5'         58.4030     6.8780    97.9760 O.3          1 FMN321   0.0000
    28 P           57.9240     5.3370    98.2930 P.3          1 FMN321   0.0000
    29 O1P         59.3100     4.7750    98.8500 O.co2        1 FMN321   0.0000
    30 O2P         57.4430     4.6760    96.9480 O.co2        1 FMN321  -1.0000
    31 O3P         56.6770     5.2900    99.2110 O.co2        1 FMN321  -1.0000
    32 H1          62.6005    10.2709   105.1945 H            1 FMN321   0.0000
    33 H2          62.9347    16.3886   101.8881 H            1 FMN321   0.0000
    34 H7M1        61.8238    18.4440    99.0761 H            1 FMN321   0.0000
    35 H7M2        62.1513    18.6920   100.6566 H            1 FMN321   0.0000
    36 H7M3        63.2639    17.9841    99.6935 H            1 FMN321   0.0000
    37 H8M1        59.4075    16.3391    97.8607 H            1 FMN321   0.0000
    38 H8M2        59.7534    17.7550    98.5970 H            1 FMN321   0.0000
    39 H8M3        60.8604    17.0470    97.6275 H            1 FMN321   0.0000
    40 H9          59.3856    14.4819    99.2094 H            1 FMN321   0.0000
    41 H1'1        58.6229    12.7525    99.8320 H            1 FMN321   0.0000
    42 H1'2        58.2439    11.8590   101.1452 H            1 FMN321   0.0000
    43 H2'         59.8862    10.2415   100.4636 H            1 FMN321   0.0000
    44 H13         61.2953    11.3212    99.1996 H            1 FMN321   0.0000
    45 H3'         58.8038     9.6545    98.1904 H            1 FMN321   0.0000
    46 H15         57.1196    10.7554    97.9209 H            1 FMN321   0.0000
    47 H4'         57.4857     8.0186    99.6018 H            1 FMN321   0.0000
    48 H17         58.6836     7.2806   101.4236 H            1 FMN321   0.0000
    49 H5'1        59.7652     6.7925    99.4465 H            1 FMN321   0.0000
    50 H5'2        59.9972     8.0213    98.3964 H            1 FMN321   0.0000
@<TRIPOS>BOND
     1    1    2       1
     2    1   18       2
     3    2    3       2
     4    2    4       1
     5    4    5       1
     6    5    6       2
     7    5    7       1
     8    7    8       2
     9    7   18       1
    10    8    9       1
    11    9   10      ar
    12    9   16      ar
    13   10   11      ar
    14   11   12       1
    15   11   13      ar
    16   13   14       1
    17   13   15      ar
    18   15   16      ar
    19   16   17       1
    20   17   18       1
    21   17   19       1
    22   19   20       1
    23   20   21       1
    24   20   22       1
    25   22   23       1
    26   22   24       1
    27   24   25       1
    28   24   26       1
    29   26   27       1
    30   27   28       1
    31   28   29      ar
    32   28   30      ar
    33   28   31      ar
    34    4   32       1
    35   10   33       1
    36   12   34       1
    37   12   35       1
    38   12   36       1
    39   14   37       1
    40   14   38       1
    41   14   39       1
    42   15   40       1
    43   19   41       1
    44   19   42       1
    45   20   43       1
    46   21   44       1
    47   22   45       1
    48   23   46       1
    49   24   47       1
    50   25   48       1
    51   26   49       1
    52   26   50       1
@<TRIPOS>SUBSTRUCTURE
     1 FMN321      1 GROUP             4 A     FMN     0 **** FMN A 321
