@<TRIPOS>MOLECULE
3qfa_FAD_2_ligand
   84    89     1     0     0
SMALL
NO_CHARGES


@<TRIPOS>ATOM
     1 PA          51.7040    20.8180  -105.4270 P.3          1 FAD600   0.0000
     2 O1A         53.1400    21.2100  -105.4440 O.co2        1 FAD600   0.0000
     3 O2A         50.7680    21.5110  -104.4920 O.co2        1 FAD600  -1.0000
     4 O5B         51.2420    20.9570  -106.9230 O.3          1 FAD600   0.0000
     5 C5B         49.9230    20.6890  -107.4160 C.3          1 FAD600   0.0000
     6 C4B         49.8230    21.5010  -108.6950 C.3          1 FAD600   0.0000
     7 O4B         48.6910    21.0440  -109.4850 O.3          1 FAD600   0.0000
     8 C3B         49.6310    23.0190  -108.5140 C.3          1 FAD600   0.0000
     9 O3B         50.4300    23.8090  -109.3960 O.3          1 FAD600   0.0000
    10 C2B         48.1230    23.1750  -108.7120 C.3          1 FAD600   0.0000
    11 O2B         47.6440    24.4750  -108.9560 O.3          1 FAD600   0.0000
    12 C1B         47.8760    22.1580  -109.8290 C.3          1 FAD600   0.0000
    13 N9A         46.5330    21.6190  -110.0040 N.pl3        1 FAD600   0.0000
    14 C8A         45.5760    21.3430  -109.0690 C.2          1 FAD600   0.0000
    15 N7A         44.4590    20.8500  -109.5660 N.2          1 FAD600   0.0000
    16 C5A         44.6990    20.8000  -110.9320 C.ar         1 FAD600   0.0000
    17 C6A         43.8870    20.3610  -112.0510 C.ar         1 FAD600   0.0000
    18 N6A         42.6500    19.8860  -111.8870 N.pl3        1 FAD600   0.0000
    19 N1A         44.4220    20.4430  -113.3030 N.ar         1 FAD600   0.0000
    20 C2A         45.6910    20.9270  -113.4490 C.ar         1 FAD600   0.0000
    21 N3A         46.5380    21.3580  -112.4850 N.ar         1 FAD600   0.0000
    22 C4A         45.9460    21.2610  -111.2090 C.ar         1 FAD600   0.0000
    23 N1          57.4180    20.7780   -97.9330 N.2          1 FAD600   0.0000
    24 C2          58.7520    20.5220   -97.6410 C.2          1 FAD600   0.0000
    25 O2          59.3240    19.4380   -97.9210 O.2          1 FAD600   0.0000
    26 N3          59.5190    21.5110   -97.0030 N.pl3        1 FAD600   0.0000
    27 C4          59.0430    22.7780   -96.6230 C.2          1 FAD600   0.0000
    28 O4          59.8290    23.5880   -96.0620 O.2          1 FAD600   0.0000
    29 C4X         57.6640    23.0370   -96.9310 C.2          1 FAD600   0.0000
    30 N5          57.0990    24.2960   -96.5990 N.2          1 FAD600   0.0000
    31 C5X         55.7570    24.5370   -96.9330 C.ar         1 FAD600   0.0000
    32 C6          55.1700    25.8090   -96.6270 C.ar         1 FAD600   0.0000
    33 C7          53.8560    26.1120   -96.9490 C.ar         1 FAD600   0.0000
    34 C7M         53.3320    27.5080   -96.5870 C.3          1 FAD600   0.0000
    35 C8          53.0390    25.1500   -97.5990 C.ar         1 FAD600   0.0000
    36 C8M         51.5950    25.4040   -97.9880 C.3          1 FAD600   0.0000
    37 C9          53.6090    23.8620   -97.9120 C.ar         1 FAD600   0.0000
    38 C9A         54.9410    23.5370   -97.5940 C.ar         1 FAD600   0.0000
    39 N10         55.5360    22.2590   -97.9130 N.pl3        1 FAD600   0.0000
    40 C10         56.8860    22.0120   -97.5890 C.2          1 FAD600   0.0000
    41 C1'         54.7400    21.2160   -98.5870 C.3          1 FAD600   0.0000
    42 C2'         55.0380    21.0790  -100.0770 C.3          1 FAD600   0.0000
    43 O2'         54.8280    22.3490  -100.7110 O.3          1 FAD600   0.0000
    44 C3'         54.1390    19.9930  -100.6480 C.3          1 FAD600   0.0000
    45 O3'         54.4180    18.7700   -99.9470 O.3          1 FAD600   0.0000
    46 C4'         54.3720    19.7440  -102.1570 C.3          1 FAD600   0.0000
    47 O4'         54.1320    20.9570  -102.8860 O.3          1 FAD600   0.0000
    48 C5'         53.4280    18.6660  -102.6280 C.3          1 FAD600   0.0000
    49 O5'         53.6690    18.3580  -104.0070 O.3          1 FAD600   0.0000
    50 P           52.4950    17.9510  -104.9930 P.3          1 FAD600   0.0000
    51 O1P         53.1490    17.6350  -106.2790 O.co2        1 FAD600   0.0000
    52 O2P         51.6530    16.9080  -104.3020 O.co2        1 FAD600  -1.0000
    53 O3P         51.5410    19.2420  -105.1890 O.3          1 FAD600   0.0000
    54 H5B1        49.2322    20.9833  -106.7555 H            1 FAD600   0.0000
    55 H5B2        49.8081    19.7140  -107.6064 H            1 FAD600   0.0000
    56 H4B         50.6567    21.3519  -109.2267 H            1 FAD600   0.0000
    57 H3B         49.8580    23.2614  -107.5708 H            1 FAD600   0.0000
    58 H5          50.1960    23.5906  -110.3434 H            1 FAD600   0.0000
    59 H2B         47.6718    22.8351  -107.8868 H            1 FAD600   0.0000
    60 H7          47.1839    24.4996  -109.8435 H            1 FAD600   0.0000
    61 H1B         48.1921    22.5405  -110.6972 H            1 FAD600   0.0000
    62 H8A         45.7113    21.5014  -108.0909 H            1 FAD600   0.0000
    63 H6A1        42.1179    19.5920  -112.6810 H            1 FAD600   0.0000
    64 H6A2        42.2556    19.8242  -110.9701 H            1 FAD600   0.0000
    65 H2A         46.0380    20.9681  -114.3860 H            1 FAD600   0.0000
    66 H13         60.4755    21.2977   -96.8042 H            1 FAD600   0.0000
    67 H14         55.7267    26.5002   -96.1662 H            1 FAD600   0.0000
    68 H7M1        52.3776    27.5905   -96.8738 H            1 FAD600   0.0000
    69 H7M2        53.3956    27.6418   -95.5980 H            1 FAD600   0.0000
    70 H7M3        53.8813    28.2015   -97.0532 H            1 FAD600   0.0000
    71 H8M1        51.2209    24.5893   -98.4311 H            1 FAD600   0.0000
    72 H8M2        51.0609    25.6128   -97.1688 H            1 FAD600   0.0000
    73 H8M3        51.5513    26.1773   -98.6205 H            1 FAD600   0.0000
    74 H21         53.0398    23.1787   -98.3693 H            1 FAD600   0.0000
    75 H1'1        53.7714    21.4396   -98.4787 H            1 FAD600   0.0000
    76 H1'2        54.9311    20.3393   -98.1455 H            1 FAD600   0.0000
    77 H2'         55.9933    20.8084  -100.1957 H            1 FAD600   0.0000
    78 H25         54.5382    22.2053  -101.6572 H            1 FAD600   0.0000
    79 H3'         53.1829    20.2461  -100.5002 H            1 FAD600   0.0000
    80 H27         53.5924    18.2064   -99.9184 H            1 FAD600   0.0000
    81 H4'         55.3158    19.4480  -102.3041 H            1 FAD600   0.0000
    82 H29         53.3947    20.8094  -103.5452 H            1 FAD600   0.0000
    83 H5'1        52.4858    18.9834  -102.5211 H            1 FAD600   0.0000
    84 H5'2        53.5669    17.8428  -102.0774 H            1 FAD600   0.0000
@<TRIPOS>BOND
     1    1    2      ar
     2    1    3      ar
     3    1    4       1
     4    1   53       1
     5    4    5       1
     6    5    6       1
     7    6    7       1
     8    6    8       1
     9    7   12       1
    10    8    9       1
    11    8   10       1
    12   10   11       1
    13   10   12       1
    14   12   13       1
    15   13   14       1
    16   13   22       1
    17   14   15       2
    18   15   16       1
    19   16   17      ar
    20   16   22      ar
    21   17   18       1
    22   17   19      ar
    23   19   20      ar
    24   20   21      ar
    25   21   22      ar
    26   23   24       1
    27   23   40       2
    28   24   25       2
    29   24   26       1
    30   26   27       1
    31   27   28       2
    32   27   29       1
    33   29   30       2
    34   29   40       1
    35   30   31       1
    36   31   32      ar
    37   31   38      ar
    38   32   33      ar
    39   33   34       1
    40   33   35      ar
    41   35   36       1
    42   35   37      ar
    43   37   38      ar
    44   38   39       1
    45   39   40       1
    46   39   41       1
    47   41   42       1
    48   42   43       1
    49   42   44       1
    50   44   45       1
    51   44   46       1
    52   46   47       1
    53   46   48       1
    54   48   49       1
    55   49   50       1
    56   50   51      ar
    57   50   52      ar
    58   50   53       1
    59   48   84       1
    60    5   54       1
    61    5   55       1
    62    6   56       1
    63    8   57       1
    64    9   58       1
    65   10   59       1
    66   11   60       1
    67   12   61       1
    68   14   62       1
    69   18   63       1
    70   18   64       1
    71   20   65       1
    72   26   66       1
    73   32   67       1
    74   34   68       1
    75   34   69       1
    76   34   70       1
    77   36   71       1
    78   36   72       1
    79   36   73       1
    80   37   74       1
    81   41   75       1
    82   41   76       1
    83   42   77       1
    84   43   78       1
    85   44   79       1
    86   45   80       1
    87   46   81       1
    88   47   82       1
    89   48   83       1
@<TRIPOS>SUBSTRUCTURE
     1 FAD600      1 GROUP             4 B     FAD     0 **** FAD B 600
