@<TRIPOS>MOLECULE
2oem_1AE_2_ligand
    9     8     1     0     0
SMALL
NO_CHARGES


@<TRIPOS>ATOM
     1 C6          27.1450   -24.4770   -21.4620 C.3          1 1AE902   0.0000
     2 O7          27.4460   -24.4320   -20.1200 O.3          1 1AE902   0.0000
     3 P           28.2930   -23.1730   -19.5050 P.3          1 1AE902   0.0000
     4 O8          29.5770   -23.0120   -20.2200 O.co2        1 1AE902   0.0000
     5 O9          28.5300   -23.4740   -17.9480 O.co2        1 1AE902  -1.0000
     6 O10         27.3990   -21.8420   -19.6160 O.co2        1 1AE902  -1.0000
     7 H1          26.6277   -25.3096   -21.6599 H            1 1AE902   0.0000
     8 H2          26.5967   -23.6776   -21.7076 H            1 1AE902   0.0000
     9 H3          27.9919   -24.4765   -21.9938 H            1 1AE902   0.0000
@<TRIPOS>BOND
     1    1    2       1
     2    2    3       1
     3    3    4      ar
     4    3    5      ar
     5    3    6      ar
     6    1    7       1
     7    1    8       1
     8    1    9       1
@<TRIPOS>SUBSTRUCTURE
     1 1AE902      1 GROUP             4 B     1AE     0 **** 1AE B 902
