@<TRIPOS>MOLECULE
3voi_RCB_1_ligand
   78    81     1     0     0
SMALL
NO_CHARGES


@<TRIPOS>ATOM
     1 C1A         18.6230    29.4730    21.4840 C.3          1 RCB503   0.0000
     2 O1A         19.6810    29.1620    22.3830 O.3          1 RCB503   0.0000
     3 C1B         23.6890    27.9710    22.1390 C.3          1 RCB503   0.0000
     4 O1B         24.8890    27.4830    21.5390 O.3          1 RCB503   0.0000
     5 C1C         27.6050    24.3980    21.8320 C.3          1 RCB503   0.0000
     6 O1C         28.3770    23.2690    22.2330 O.3          1 RCB503   0.0000
     7 C1D         29.7450    23.2420    22.2080 C.ar         1 RCB503   0.0000
     8 N1D         33.9320    23.1720    22.1850 N.2          1 RCB503   1.0000
     9 C2A         17.2770    29.3150    22.2090 C.3          1 RCB503   0.0000
    10 O2A         16.9940    27.9470    22.5510 O.3          1 RCB503   0.0000
    11 C2B         23.2920    29.2220    21.3540 C.3          1 RCB503   0.0000
    12 O2B         24.3090    30.2200    21.5030 O.3          1 RCB503   0.0000
    13 C2C         26.1740    23.9440    21.5970 C.3          1 RCB503   0.0000
    14 O2C         26.1900    22.9500    20.5730 O.3          1 RCB503   0.0000
    15 C2D         30.4710    24.4240    22.1020 C.ar         1 RCB503   0.0000
    16 O2D         34.5610    22.1230    22.2460 O.co2        1 RCB503   0.0000
    17 C3A         16.1320    29.8690    21.3650 C.3          1 RCB503   0.0000
    18 O3A         14.9530    29.8460    22.1760 O.3          1 RCB503   0.0000
    19 C3B         21.9650    29.7640    21.8610 C.3          1 RCB503   0.0000
    20 O3B         21.5700    30.8950    21.0800 O.3          1 RCB503   0.0000
    21 C3C         25.3280    25.1520    21.1880 C.3          1 RCB503   0.0000
    22 O3C         23.9420    24.7980    21.1620 O.3          1 RCB503   0.0000
    23 C3D         31.8540    24.3860    22.0890 C.ar         1 RCB503   0.0000
    24 O3D         34.5450    24.2290    22.1960 O.co2        1 RCB503  -1.0000
    25 C4A         16.4670    31.2970    20.8870 C.3          1 RCB503   0.0000
    26 O4A         15.4430    31.8590    20.0620 O.3          1 RCB503   0.0000
    27 C4B         20.8830    28.6820    21.7780 C.3          1 RCB503   0.0000
    28 C4C         25.5030    26.3420    22.1450 C.3          1 RCB503   0.0000
    29 C4D         32.5260    23.1680    22.1760 C.ar         1 RCB503   0.0000
    30 C5A         17.8040    31.3100    20.1410 C.3          1 RCB503   0.0000
    31 O5A         18.8050    30.8310    21.0500 O.3          1 RCB503   0.0000
    32 C5B         21.3570    27.4360    22.5200 C.3          1 RCB503   0.0000
    33 O5B         22.6420    26.9960    22.0640 O.3          1 RCB503   0.0000
    34 C5C         26.9900    26.6200    22.3950 C.3          1 RCB503   0.0000
    35 O5C         27.6060    25.4080    22.8420 O.3          1 RCB503   0.0000
    36 C5D         31.8000    21.9760    22.2830 C.ar         1 RCB503   0.0000
    37 C6A         18.1720    32.7200    19.6420 C.3          1 RCB503   0.0000
    38 O6A         19.4450    32.6810    18.9730 O.3          1 RCB503   0.0000
    39 C6B         20.3670    26.2920    22.3360 C.3          1 RCB503   0.0000
    40 O6B         20.6790    25.3000    23.3130 O.3          1 RCB503   0.0000
    41 C6C         27.2500    27.7260    23.4200 C.3          1 RCB503   0.0000
    42 O6C         28.6070    28.1810    23.2520 O.3          1 RCB503   0.0000
    43 C6D         30.4050    22.0140    22.2940 C.ar         1 RCB503   0.0000
    44 H1A         18.6570    28.8584    20.6959 H            1 RCB503   0.0000
    45 H1B         23.8610    28.2108    23.0945 H            1 RCB503   0.0000
    46 H1C         27.9792    24.7738    20.9842 H            1 RCB503   0.0000
    47 H2A         17.3191    29.8431    23.0572 H            1 RCB503   0.0000
    48 H5          17.4193    27.3406    21.8792 H            1 RCB503   0.0000
    49 H2B         23.2021    28.9872    20.3861 H            1 RCB503   0.0000
    50 H7          24.6812    30.4533    20.6047 H            1 RCB503   0.0000
    51 H2C         25.8067    23.5494    22.4392 H            1 RCB503   0.0000
    52 H9          25.3296    22.9815    20.0644 H            1 RCB503   0.0000
    53 H2D         29.9937    25.3002    22.0353 H            1 RCB503   0.0000
    54 H3A         15.9951    29.2794    20.5690 H            1 RCB503   0.0000
    55 H12         14.2611    29.2689    21.7420 H            1 RCB503   0.0000
    56 H3B         22.0710    30.0469    22.8143 H            1 RCB503   0.0000
    57 H14         20.5718    30.9489    21.0525 H            1 RCB503   0.0000
    58 H3C         25.6020    25.4376    20.2697 H            1 RCB503   0.0000
    59 H16         23.3886    25.6014    21.3817 H            1 RCB503   0.0000
    60 H3D         32.3742    25.2370    22.0168 H            1 RCB503   0.0000
    61 H4A         16.5617    31.8769    21.6961 H            1 RCB503   0.0000
    62 H19         15.3167    31.2871    19.2515 H            1 RCB503   0.0000
    63 H4B         20.7085    28.4553    20.8198 H            1 RCB503   0.0000
    64 H4C         25.0502    26.1412    23.0137 H            1 RCB503   0.0000
    65 H5A         17.7485    30.6898    19.3585 H            1 RCB503   0.0000
    66 H5B         21.4202    27.6497    23.4948 H            1 RCB503   0.0000
    67 H5C         27.4113    26.8873    21.5284 H            1 RCB503   0.0000
    68 H5D         32.2790    21.1008    22.3513 H            1 RCB503   0.0000
    69 H6A1        18.2249    33.3449    20.4209 H            1 RCB503   0.0000
    70 H6A2        17.4712    33.0404    19.0046 H            1 RCB503   0.0000
    71 H6A         19.7996    31.7460    18.9854 H            1 RCB503   0.0000
    72 H6B1        20.4555    25.9072    21.4172 H            1 RCB503   0.0000
    73 H6B2        19.4329    26.6228    22.4703 H            1 RCB503   0.0000
    74 H6B         20.5934    25.6946    24.2278 H            1 RCB503   0.0000
    75 H6C1        27.1247    27.3673    24.3450 H            1 RCB503   0.0000
    76 H6C2        26.6167    28.4848    23.2681 H            1 RCB503   0.0000
    77 H6C         28.7998    28.9059    23.9133 H            1 RCB503   0.0000
    78 H6D         29.8801    21.1656    22.3632 H            1 RCB503   0.0000
@<TRIPOS>BOND
     1    1    2       1
     2    1    9       1
     3    1   31       1
     4    2   27       1
     5    3    4       1
     6    3   11       1
     7    3   33       1
     8    4   28       1
     9    5    6       1
    10    5   13       1
    11    5   35       1
    12    6    7       1
    13    7   15      ar
    14    7   43      ar
    15    8   16      ar
    16    8   24      ar
    17    8   29       1
    18    9   10       1
    19    9   17       1
    20   11   12       1
    21   11   19       1
    22   13   14       1
    23   13   21       1
    24   15   23      ar
    25   17   18       1
    26   17   25       1
    27   19   20       1
    28   19   27       1
    29   21   22       1
    30   21   28       1
    31   23   29      ar
    32   25   26       1
    33   25   30       1
    34   27   32       1
    35   28   34       1
    36   29   36      ar
    37   30   31       1
    38   30   37       1
    39   32   33       1
    40   32   39       1
    41   34   35       1
    42   34   41       1
    43   36   43      ar
    44   37   38       1
    45   39   40       1
    46   41   42       1
    47    1   44       1
    48    3   45       1
    49    5   46       1
    50    9   47       1
    51   10   48       1
    52   11   49       1
    53   12   50       1
    54   13   51       1
    55   14   52       1
    56   15   53       1
    57   17   54       1
    58   18   55       1
    59   19   56       1
    60   20   57       1
    61   21   58       1
    62   22   59       1
    63   23   60       1
    64   25   61       1
    65   26   62       1
    66   27   63       1
    67   28   64       1
    68   30   65       1
    69   32   66       1
    70   34   67       1
    71   36   68       1
    72   37   69       1
    73   37   70       1
    74   38   71       1
    75   39   72       1
    76   39   73       1
    77   40   74       1
    78   41   75       1
    79   41   76       1
    80   42   77       1
    81   43   78       1
@<TRIPOS>SUBSTRUCTURE
     1 RCB503      1 GROUP             4 A     RCB     0 **** RCB A 503
