@<TRIPOS>MOLECULE
3fmn_530_1_ligand
   40    43     1     0     0
SMALL
NO_CHARGES


@<TRIPOS>ATOM
     1 F25         14.0890    10.6860    30.6230 F            1 530361   0.0000
     2 C21         15.3540    11.1090    30.8110 C.ar         1 530361   0.0000
     3 C20         15.9950    11.8860    29.8430 C.ar         1 530361   0.0000
     4 C19         17.3090    12.3170    30.0500 C.ar         1 530361   0.0000
     5 C22         16.0240    10.7670    31.9830 C.ar         1 530361   0.0000
     6 C23         17.3330    11.2000    32.1860 C.ar         1 530361   0.0000
     7 F24         17.9650    10.8610    33.3200 F            1 530361   0.0000
     8 C12         17.9780    11.9780    31.2270 C.ar         1 530361   0.0000
     9 O11         19.2760    12.4000    31.4320 O.3          1 530361   0.0000
    10 C3          20.3150    11.5090    31.3300 C.ar         1 530361   0.0000
    11 N2          21.5790    11.8800    31.6980 N.ar         1 530361   0.0000
    12 N4          20.0460    10.2660    30.8590 N.ar         1 530361   0.0000
    13 C6          21.0360     9.3520    30.7440 C.ar         1 530361   0.0000
    14 N7          21.0900     8.0750    30.3250 N.pl3        1 530361   0.0000
    15 N8          22.4120     7.5920    30.4180 N.2          1 530361   0.0000
    16 C9          23.1520     8.6060    30.9020 C.2          1 530361   0.0000
    17 C5          22.3980     9.7480    31.1440 C.ar         1 530361   0.0000
    18 C1          22.6290    11.0360    31.6220 C.ar         1 530361   0.0000
    19 N10         24.4830     8.4330    31.1100 N.pl3        1 530361   0.0000
    20 C13         25.4270     9.5140    31.3060 C.3          1 530361   0.0000
    21 C18         26.3790     9.5960    30.1150 C.3          1 530361   0.0000
    22 C17         27.4890    10.6120    30.3870 C.3          1 530361   0.0000
    23 O16         28.1750    10.2810    31.6000 O.3          1 530361   0.0000
    24 C15         27.3340    10.2920    32.7600 C.3          1 530361   0.0000
    25 C14         26.2070     9.2720    32.5950 C.3          1 530361   0.0000
    26 H1          15.5141    12.1340    29.0020 H            1 530361   0.0000
    27 H2          17.7696    12.8684    29.3544 H            1 530361   0.0000
    28 H3          15.5667    10.2117    32.6776 H            1 530361   0.0000
    29 H4          20.3079     7.5458    29.9959 H            1 530361   0.0000
    30 H5          23.5447    11.3261    31.9002 H            1 530361   0.0000
    31 H6          24.8346     7.4971    31.1291 H            1 530361   0.0000
    32 H7          24.9258    10.3758    31.3840 H            1 530361   0.0000
    33 H8          25.8672     9.8769    29.3031 H            1 530361   0.0000
    34 H9          26.7871     8.6968    29.9572 H            1 530361   0.0000
    35 H10         27.0884    11.5243    30.4723 H            1 530361   0.0000
    36 H11         28.1387    10.6030    29.6269 H            1 530361   0.0000
    37 H12         26.9412    11.2043    32.8762 H            1 530361   0.0000
    38 H13         27.8777    10.0580    33.5660 H            1 530361   0.0000
    39 H14         26.6001     8.3528    32.5705 H            1 530361   0.0000
    40 H15         25.5829     9.3470    33.3727 H            1 530361   0.0000
@<TRIPOS>BOND
     1    1    2       1
     2    2    3      ar
     3    2    5      ar
     4    3    4      ar
     5    4    8      ar
     6    5    6      ar
     7    6    7       1
     8    6    8      ar
     9    8    9       1
    10    9   10       1
    11   10   11      ar
    12   10   12      ar
    13   11   18      ar
    14   12   13      ar
    15   13   14       1
    16   13   17      ar
    17   14   15       1
    18   15   16       2
    19   16   17       1
    20   16   19       1
    21   17   18      ar
    22   19   20       1
    23   20   21       1
    24   20   25       1
    25   21   22       1
    26   22   23       1
    27   23   24       1
    28   24   25       1
    29    3   26       1
    30    4   27       1
    31    5   28       1
    32   14   29       1
    33   18   30       1
    34   19   31       1
    35   20   32       1
    36   21   33       1
    37   21   34       1
    38   22   35       1
    39   22   36       1
    40   24   37       1
    41   24   38       1
    42   25   39       1
    43   25   40       1
@<TRIPOS>SUBSTRUCTURE
     1 530361      1 GROUP             4 A     530     0 **** 530 A 361
