@<TRIPOS>MOLECULE
2v3a_FAD_1_ligand
   84    89     1     0     0
SMALL
NO_CHARGES


@<TRIPOS>ATOM
     1 PA          85.5210    31.3130    18.5580 P.3          1 FAD1393   0.0000
     2 O1A         84.4420    31.7570    17.5970 O.co2        1 FAD1393   0.0000
     3 O2A         86.0910    29.9500    18.2460 O.co2        1 FAD1393  -1.0000
     4 O5B         84.9300    31.1310    20.0340 O.3          1 FAD1393   0.0000
     5 C5B         84.0210    32.0430    20.5900 C.3          1 FAD1393   0.0000
     6 C4B         83.4630    31.3810    21.8450 C.3          1 FAD1393   0.0000
     7 O4B         82.6020    32.2630    22.5560 O.3          1 FAD1393   0.0000
     8 C3B         82.6350    30.1170    21.5770 C.3          1 FAD1393   0.0000
     9 O3B         83.0000    29.1940    22.5770 O.3          1 FAD1393   0.0000
    10 C2B         81.2010    30.5410    21.8030 C.3          1 FAD1393   0.0000
    11 O2B         80.4280    29.4780    22.2880 O.3          1 FAD1393   0.0000
    12 C1B         81.3990    31.5870    22.8810 C.3          1 FAD1393   0.0000
    13 N9A         80.3420    32.5930    22.9510 N.pl3        1 FAD1393   0.0000
    14 C8A         80.0030    33.5260    22.0060 C.2          1 FAD1393   0.0000
    15 N7A         79.0200    34.2980    22.5090 N.2          1 FAD1393   0.0000
    16 C5A         78.7350    33.8720    23.7630 C.ar         1 FAD1393   0.0000
    17 C6A         77.7980    34.2700    24.7250 C.ar         1 FAD1393   0.0000
    18 N6A         77.0770    35.3830    24.5810 N.pl3        1 FAD1393   0.0000
    19 N1A         77.7510    33.6020    25.9210 N.ar         1 FAD1393   0.0000
    20 C2A         78.5910    32.5370    26.2050 C.ar         1 FAD1393   0.0000
    21 N3A         79.4940    32.1410    25.2590 N.ar         1 FAD1393   0.0000
    22 C4A         79.5710    32.8060    24.0610 C.ar         1 FAD1393   0.0000
    23 N1          92.9730    30.5330    11.3040 N.2          1 FAD1393   0.0000
    24 C2          94.2740    30.1820    11.0520 C.2          1 FAD1393   0.0000
    25 O2          95.1480    30.7330    11.7160 O.2          1 FAD1393   0.0000
    26 N3          94.5760    29.2150    10.0950 N.pl3        1 FAD1393   0.0000
    27 C4          93.5460    28.5910     9.3990 C.2          1 FAD1393   0.0000
    28 O4          93.8130    27.7280     8.5510 O.2          1 FAD1393   0.0000
    29 C4X         92.2070    28.9670     9.6370 C.2          1 FAD1393   0.0000
    30 N5          91.1500    28.3850     8.9330 N.2          1 FAD1393   0.0000
    31 C5X         89.8470    28.7180     9.2570 C.ar         1 FAD1393   0.0000
    32 C6          88.8070    28.0970     8.5930 C.ar         1 FAD1393   0.0000
    33 C7          87.4910    28.4380     8.9060 C.ar         1 FAD1393   0.0000
    34 C7M         86.3840    27.4880     8.4800 C.3          1 FAD1393   0.0000
    35 C8          87.2170    29.4110     9.8920 C.ar         1 FAD1393   0.0000
    36 C8M         85.8310    29.4930    10.5070 C.3          1 FAD1393   0.0000
    37 C9          88.2630    30.0160    10.5720 C.ar         1 FAD1393   0.0000
    38 C9A         89.5730    29.6710    10.2580 C.ar         1 FAD1393   0.0000
    39 N10         90.6160    30.2930    10.9210 N.pl3        1 FAD1393   0.0000
    40 C10         91.9320    29.9200    10.6270 C.2          1 FAD1393   0.0000
    41 C1'         90.3550    31.4150    11.9020 C.3          1 FAD1393   0.0000
    42 C2'         90.4210    30.8480    13.3260 C.3          1 FAD1393   0.0000
    43 O2'         89.7450    29.5960    13.3810 O.3          1 FAD1393   0.0000
    44 C3'         89.8210    31.8170    14.3450 C.3          1 FAD1393   0.0000
    45 O3'         90.6110    32.9850    14.3420 O.3          1 FAD1393   0.0000
    46 C4'         89.8130    31.2750    15.7810 C.3          1 FAD1393   0.0000
    47 O4'         89.1910    30.0120    15.8680 O.3          1 FAD1393   0.0000
    48 C5'         89.0670    32.2190    16.7010 C.3          1 FAD1393   0.0000
    49 O5'         89.0230    31.6550    17.9910 O.3          1 FAD1393   0.0000
    50 P           88.1790    32.4010    19.1140 P.3          1 FAD1393   0.0000
    51 O1P         88.2430    31.5570    20.3730 O.co2        1 FAD1393   0.0000
    52 O2P         88.6290    33.8220    19.2980 O.co2        1 FAD1393  -1.0000
    53 O3P         86.6480    32.4690    18.5750 O.3          1 FAD1393   0.0000
    54 H5B1        83.2833    32.2347    19.9426 H            1 FAD1393   0.0000
    55 H5B2        84.4870    32.8956    20.8264 H            1 FAD1393   0.0000
    56 H4B         84.2282    31.1374    22.4409 H            1 FAD1393   0.0000
    57 H3B         82.7825    29.7558    20.6562 H            1 FAD1393   0.0000
    58 H5          83.3805    28.3735    22.1504 H            1 FAD1393   0.0000
    59 H2B         80.8014    30.9375    20.9765 H            1 FAD1393   0.0000
    60 H7          79.6813    29.2905    21.6498 H            1 FAD1393   0.0000
    61 H1B         81.4953    31.1389    23.7698 H            1 FAD1393   0.0000
    62 H8A         80.4144    33.6179    21.0992 H            1 FAD1393   0.0000
    63 H6A1        76.4147    35.6440    25.2833 H            1 FAD1393   0.0000
    64 H6A2        77.1988    35.9563    23.7708 H            1 FAD1393   0.0000
    65 H2A         78.5373    32.0670    27.0860 H            1 FAD1393   0.0000
    66 H13         95.5279    28.9711     9.9097 H            1 FAD1393   0.0000
    67 H14         88.9961    27.4082     7.8932 H            1 FAD1393   0.0000
    68 H7M1        85.4998    27.8560     8.7677 H            1 FAD1393   0.0000
    69 H7M2        86.3954    27.3876     7.4851 H            1 FAD1393   0.0000
    70 H7M3        86.5283    26.5953     8.9068 H            1 FAD1393   0.0000
    71 H8M1        85.8089    30.2305    11.1819 H            1 FAD1393   0.0000
    72 H8M2        85.1586    29.6770     9.7901 H            1 FAD1393   0.0000
    73 H8M3        85.6128    28.6255    10.9540 H            1 FAD1393   0.0000
    74 H21         88.0769    30.6948    11.2823 H            1 FAD1393   0.0000
    75 H1'1        89.4485    31.8032    11.7360 H            1 FAD1393   0.0000
    76 H1'2        91.0481    32.1273    11.7909 H            1 FAD1393   0.0000
    77 H2'         91.3813    30.6981    13.5613 H            1 FAD1393   0.0000
    78 H25         90.3908    28.8594    13.1800 H            1 FAD1393   0.0000
    79 H3'         88.8869    32.0479    14.0727 H            1 FAD1393   0.0000
    80 H27         90.0418    33.7730    14.5765 H            1 FAD1393   0.0000
    81 H4'         90.7571    31.1924    16.1000 H            1 FAD1393   0.0000
    82 H29         89.3175    29.5181    15.0077 H            1 FAD1393   0.0000
    83 H5'1        88.1362    32.3539    16.3612 H            1 FAD1393   0.0000
    84 H5'2        89.5403    33.0992    16.7350 H            1 FAD1393   0.0000
@<TRIPOS>BOND
     1    1    2      ar
     2    1    3      ar
     3    1    4       1
     4    1   53       1
     5    4    5       1
     6    5    6       1
     7    6    7       1
     8    6    8       1
     9    7   12       1
    10    8    9       1
    11    8   10       1
    12   10   11       1
    13   10   12       1
    14   12   13       1
    15   13   14       1
    16   13   22       1
    17   14   15       2
    18   15   16       1
    19   16   17      ar
    20   16   22      ar
    21   17   18       1
    22   17   19      ar
    23   19   20      ar
    24   20   21      ar
    25   21   22      ar
    26   23   24       1
    27   23   40       2
    28   24   25       2
    29   24   26       1
    30   26   27       1
    31   27   28       2
    32   27   29       1
    33   29   30       2
    34   29   40       1
    35   30   31       1
    36   31   32      ar
    37   31   38      ar
    38   32   33      ar
    39   33   34       1
    40   33   35      ar
    41   35   36       1
    42   35   37      ar
    43   37   38      ar
    44   38   39       1
    45   39   40       1
    46   39   41       1
    47   41   42       1
    48   42   43       1
    49   42   44       1
    50   44   45       1
    51   44   46       1
    52   46   47       1
    53   46   48       1
    54   48   49       1
    55   49   50       1
    56   50   51      ar
    57   50   52      ar
    58   50   53       1
    59   48   84       1
    60    5   54       1
    61    5   55       1
    62    6   56       1
    63    8   57       1
    64    9   58       1
    65   10   59       1
    66   11   60       1
    67   12   61       1
    68   14   62       1
    69   18   63       1
    70   18   64       1
    71   20   65       1
    72   26   66       1
    73   32   67       1
    74   34   68       1
    75   34   69       1
    76   34   70       1
    77   36   71       1
    78   36   72       1
    79   36   73       1
    80   37   74       1
    81   41   75       1
    82   41   76       1
    83   42   77       1
    84   43   78       1
    85   44   79       1
    86   45   80       1
    87   46   81       1
    88   47   82       1
    89   48   83       1
@<TRIPOS>SUBSTRUCTURE
     1 FAD1393     1 GROUP             4 A     FAD     0 **** FAD A1393
