@<TRIPOS>MOLECULE
2z1q_FAD_1_ligand
   84    89     1     0     0
SMALL
NO_CHARGES


@<TRIPOS>ATOM
     1 PA           1.2670    92.6700    69.5430 P.3          1 FAD700   0.0000
     2 O1A          1.8860    93.8420    70.1130 O.co2        1 FAD700   0.0000
     3 O2A          0.2880    91.7070    70.3670 O.co2        1 FAD700  -1.0000
     4 O5B          1.1380    92.6410    67.9710 O.3          1 FAD700   0.0000
     5 C5B          2.3860    92.3310    67.3690 C.3          1 FAD700   0.0000
     6 C4B          1.9820    92.1760    65.9440 C.3          1 FAD700   0.0000
     7 O4B          0.7960    92.6360    65.3910 O.3          1 FAD700   0.0000
     8 C3B          3.0700    92.1460    64.7840 C.3          1 FAD700   0.0000
     9 O3B          3.6750    90.8470    64.7050 O.3          1 FAD700   0.0000
    10 C2B          2.0330    92.5060    63.6520 C.3          1 FAD700   0.0000
    11 O2B          2.3930    92.0790    62.3250 O.3          1 FAD700   0.0000
    12 C1B          0.9950    91.7300    64.3710 C.3          1 FAD700   0.0000
    13 N9A         -0.1830    91.2060    63.7120 N.pl3        1 FAD700   0.0000
    14 C8A         -1.3290    90.9400    64.4170 C.2          1 FAD700   0.0000
    15 N7A         -2.2280    90.4430    63.6560 N.2          1 FAD700   0.0000
    16 C5A         -1.7540    90.3730    62.3960 C.ar         1 FAD700   0.0000
    17 C6A         -2.2790    89.9390    61.1490 C.ar         1 FAD700   0.0000
    18 N6A         -3.5700    89.4640    61.0860 N.pl3        1 FAD700   0.0000
    19 N1A         -1.4810    90.0210    60.0430 N.ar         1 FAD700   0.0000
    20 C2A         -0.2260    90.4620    60.1110 C.ar         1 FAD700   0.0000
    21 N3A          0.2940    90.8650    61.2580 N.ar         1 FAD700   0.0000
    22 C4A         -0.4150    90.8570    62.4230 C.ar         1 FAD700   0.0000
    23 N1          -6.2460   100.1800    74.2490 N.2          1 FAD700   0.0000
    24 C2          -7.5090   100.4640    74.5790 C.2          1 FAD700   0.0000
    25 O2          -8.3410    99.5650    74.5170 O.2          1 FAD700   0.0000
    26 N3          -7.9080   101.7010    74.9980 N.pl3        1 FAD700   0.0000
    27 C4          -7.0220   102.7540    75.1130 C.2          1 FAD700   0.0000
    28 O4          -7.3770   103.8510    75.4950 O.2          1 FAD700   0.0000
    29 C4X         -5.6090   102.4980    74.7850 C.2          1 FAD700   0.0000
    30 N5          -4.6520   103.4260    74.8910 N.2          1 FAD700   0.0000
    31 C5X         -3.3470   103.1450    74.6350 C.ar         1 FAD700   0.0000
    32 C6          -2.3160   104.1450    74.8140 C.ar         1 FAD700   0.0000
    33 C7          -0.9740   103.8120    74.5790 C.ar         1 FAD700   0.0000
    34 C7M          0.0880   104.8650    74.8090 C.3          1 FAD700   0.0000
    35 C8          -0.6110   102.5030    74.1270 C.ar         1 FAD700   0.0000
    36 C8M          0.8310   102.1200    73.8720 C.3          1 FAD700   0.0000
    37 C9          -1.5890   101.5360    73.9360 C.ar         1 FAD700   0.0000
    38 C9A         -2.9740   101.8360    74.1730 C.ar         1 FAD700   0.0000
    39 N10         -3.9590   100.8270    74.0290 N.pl3        1 FAD700   0.0000
    40 C10         -5.2670   101.0990    74.3190 C.2          1 FAD700   0.0000
    41 C1'         -3.4910    99.5280    73.5890 C.3          1 FAD700   0.0000
    42 C2'         -3.6810    99.1870    72.1080 C.3          1 FAD700   0.0000
    43 O2'         -5.0650    99.0580    71.7660 O.3          1 FAD700   0.0000
    44 C3'         -2.9630    97.8980    72.0170 C.3          1 FAD700   0.0000
    45 O3'         -1.5730    98.1500    72.3640 O.3          1 FAD700   0.0000
    46 C4'         -2.9570    97.2710    70.6570 C.3          1 FAD700   0.0000
    47 O4'         -4.2780    96.9580    70.1970 O.3          1 FAD700   0.0000
    48 C5'         -2.0990    96.0820    70.9340 C.3          1 FAD700   0.0000
    49 O5'         -1.8100    95.3080    69.8730 O.3          1 FAD700   0.0000
    50 P           -0.6970    94.3640    70.5510 P.3          1 FAD700   0.0000
    51 O1P          0.3270    95.2160    71.1900 O.co2        1 FAD700   0.0000
    52 O2P         -1.3900    93.4120    71.6830 O.co2        1 FAD700  -1.0000
    53 O3P         -0.0940    93.5490    69.2680 O.3          1 FAD700   0.0000
    54 H5B1         2.7707    91.4841    67.7360 H            1 FAD700   0.0000
    55 H5B2         3.0448    93.0743    67.4854 H            1 FAD700   0.0000
    56 H4B          1.7636    91.2003    65.9617 H            1 FAD700   0.0000
    57 H3B          3.7543    92.8658    64.9006 H            1 FAD700   0.0000
    58 H5           4.6150    90.9365    64.3757 H            1 FAD700   0.0000
    59 H2B          1.8185    93.4826    63.6647 H            1 FAD700   0.0000
    60 H7           1.5636    91.8916    61.7986 H            1 FAD700   0.0000
    61 H1B          1.4620    90.9453    64.7786 H            1 FAD700   0.0000
    62 H8A         -1.4457    91.1118    65.3952 H            1 FAD700   0.0000
    63 H6A1        -3.9476    89.1565    60.2126 H            1 FAD700   0.0000
    64 H6A2        -4.1299    89.4266    61.9137 H            1 FAD700   0.0000
    65 H2A          0.3318    90.4887    59.2815 H            1 FAD700   0.0000
    66 H13         -8.8699   101.8486    75.2283 H            1 FAD700   0.0000
    67 H14         -2.5598   105.0704    75.1043 H            1 FAD700   0.0000
    68 H7M1         0.9879   104.4818    74.6009 H            1 FAD700   0.0000
    69 H7M2        -0.0860   105.6495    74.2138 H            1 FAD700   0.0000
    70 H7M3         0.0639   105.1596    75.7643 H            1 FAD700   0.0000
    71 H8M1         0.8740   101.1696    73.5641 H            1 FAD700   0.0000
    72 H8M2         1.2146   102.7165    73.1670 H            1 FAD700   0.0000
    73 H8M3         1.3570   102.2209    74.7165 H            1 FAD700   0.0000
    74 H21         -1.3265   100.6208    73.6302 H            1 FAD700   0.0000
    75 H1'1        -3.9762    98.8355    74.1229 H            1 FAD700   0.0000
    76 H1'2        -2.5122    99.4766    73.7875 H            1 FAD700   0.0000
    77 H2'         -3.2404    99.8747    71.5310 H            1 FAD700   0.0000
    78 H25         -5.1637    98.4020    71.0177 H            1 FAD700   0.0000
    79 H3'         -3.3555    97.2550    72.6746 H            1 FAD700   0.0000
    80 H27         -1.3242    97.6021    73.1627 H            1 FAD700   0.0000
    81 H4'         -2.5020    97.8761    70.0037 H            1 FAD700   0.0000
    82 H29         -4.3487    95.9745    70.0306 H            1 FAD700   0.0000
    83 H5'1        -2.5705    95.5140    71.6086 H            1 FAD700   0.0000
    84 H5'2        -1.2361    96.4095    71.3188 H            1 FAD700   0.0000
@<TRIPOS>BOND
     1    1    2      ar
     2    1    3      ar
     3    1    4       1
     4    1   53       1
     5    4    5       1
     6    5    6       1
     7    6    7       1
     8    6    8       1
     9   50   53       1
    10    7   12       1
    11    8    9       1
    12    8   10       1
    13   10   11       1
    14   10   12       1
    15   12   13       1
    16   13   14       1
    17   13   22       1
    18   14   15       2
    19   15   16       1
    20   16   17      ar
    21   16   22      ar
    22   17   18       1
    23   17   19      ar
    24   19   20      ar
    25   20   21      ar
    26   21   22      ar
    27   23   24       1
    28   23   40       2
    29   24   25       2
    30   24   26       1
    31   26   27       1
    32   27   28       2
    33   27   29       1
    34   29   30       2
    35   29   40       1
    36   30   31       1
    37   31   32      ar
    38   31   38      ar
    39   32   33      ar
    40   33   34       1
    41   33   35      ar
    42   35   36       1
    43   35   37      ar
    44   37   38      ar
    45   38   39       1
    46   39   40       1
    47   39   41       1
    48   41   42       1
    49   42   43       1
    50   42   44       1
    51   44   45       1
    52   44   46       1
    53   46   47       1
    54   46   48       1
    55   48   49       1
    56   49   50       1
    57   50   51      ar
    58   50   52      ar
    59   48   84       1
    60    5   54       1
    61    5   55       1
    62    6   56       1
    63    8   57       1
    64    9   58       1
    65   10   59       1
    66   11   60       1
    67   12   61       1
    68   14   62       1
    69   18   63       1
    70   18   64       1
    71   20   65       1
    72   26   66       1
    73   32   67       1
    74   34   68       1
    75   34   69       1
    76   34   70       1
    77   36   71       1
    78   36   72       1
    79   36   73       1
    80   37   74       1
    81   41   75       1
    82   41   76       1
    83   42   77       1
    84   43   78       1
    85   44   79       1
    86   45   80       1
    87   46   81       1
    88   47   82       1
    89   48   83       1
@<TRIPOS>SUBSTRUCTURE
     1 FAD700      1 GROUP             4 A     FAD     0 **** FAD A 700
