@<TRIPOS>MOLECULE
4zdc_CO8_1_ligand
   63    65     1     0     0
SMALL
NO_CHARGES


@<TRIPOS>ATOM
     1 N1A        225.0600   249.3680   253.9830 N.ar         1 CO8304   0.0000
     2 C2A        224.0920   250.2210   253.5860 C.ar         1 CO8304   0.0000
     3 N3A        223.6800   250.3130   252.3080 N.ar         1 CO8304   0.0000
     4 C4A        224.2280   249.5240   251.3460 C.ar         1 CO8304   0.0000
     5 C5A        225.2840   248.5620   251.7090 C.ar         1 CO8304   0.0000
     6 C6A        225.6950   248.5180   253.1350 C.ar         1 CO8304   0.0000
     7 N6A        226.6540   247.6540   253.5610 N.pl3        1 CO8304   0.0000
     8 N7A        225.6310   247.9260   250.5740 N.2          1 CO8304   0.0000
     9 C8A        224.8750   248.4270   249.5710 C.2          1 CO8304   0.0000
    10 N9A        224.0420   249.3680   250.0330 N.pl3        1 CO8304   0.0000
    11 C1B        223.0910   250.1440   249.2040 C.3          1 CO8304   0.0000
    12 C2B        223.8460   251.2970   248.5470 C.3          1 CO8304   0.0000
    13 O2B        224.0060   252.4200   249.4310 O.3          1 CO8304   0.0000
    14 C3B        222.9650   251.5800   247.3520 C.3          1 CO8304   0.0000
    15 O3B        221.9260   252.4680   247.7620 O.3          1 CO8304   0.0000
    16 P3B        221.1710   253.4790   246.7590 P.3          1 CO8304   0.0000
    17 O7A        220.1410   254.1460   247.6380 O.co2        1 CO8304   0.0000
    18 O8A        222.2790   254.3860   246.2710 O.co2        1 CO8304  -1.0000
    19 O9A        220.5630   252.5860   245.7010 O.co2        1 CO8304  -1.0000
    20 C4B        222.4110   250.1980   246.9740 C.3          1 CO8304   0.0000
    21 O4B        222.5050   249.3720   248.1420 O.3          1 CO8304   0.0000
    22 C5B        223.1550   249.5500   245.8070 C.3          1 CO8304   0.0000
    23 O5B        224.5800   249.7090   245.9110 O.3          1 CO8304   0.0000
    24 P1A        225.4950   249.5940   244.5810 P.3          1 CO8304   0.0000
    25 O1A        225.8210   251.0150   244.1940 O.co2        1 CO8304   0.0000
    26 O2A        224.7360   248.6920   243.6200 O.co2        1 CO8304  -1.0000
    27 O3A        226.9000   248.8800   245.0040 O.3          1 CO8304   0.0000
    28 P2A        228.0140   248.2270   243.9900 P.3          1 CO8304   0.0000
    29 O4A        227.4170   247.0370   243.2670 O.co2        1 CO8304   0.0000
    30 O5A        228.6520   249.3280   243.1680 O.co2        1 CO8304  -1.0000
    31 O6A        229.1690   247.6500   244.9780 O.3          1 CO8304   0.0000
    32 CBP        230.3310   247.6770   247.1820 C.3          1 CO8304   0.0000
    33 CCP        229.0870   247.9870   246.3590 C.3          1 CO8304   0.0000
    34 CDP        231.6200   248.0710   246.4590 C.3          1 CO8304   0.0000
    35 CEP        230.4150   246.1930   247.4640 C.3          1 CO8304   0.0000
    36 CAP        230.2250   248.4350   248.5130 C.3          1 CO8304   0.0000
    37 OAP        230.6740   249.7780   248.3210 O.3          1 CO8304   0.0000
    38 C9P        228.8240   248.5110   249.0770 C.2          1 CO8304   0.0000
    39 O9P        227.9470   249.1600   248.5290 O.2          1 CO8304   0.0000
    40 N8P        228.5800   247.8740   250.2160 N.am         1 CO8304   0.0000
    41 H2A        223.6626   250.8098   254.2708 H            1 CO8304   0.0000
    42 H6A1       227.1011   247.0420   252.9087 H            1 CO8304   0.0000
    43 H6A2       226.9125   247.6304   254.5267 H            1 CO8304   0.0000
    44 H8A        224.9304   248.1351   248.6162 H            1 CO8304   0.0000
    45 H1B        222.3659   250.5112   249.7865 H            1 CO8304   0.0000
    46 H2B        224.7428   250.9805   248.2378 H            1 CO8304   0.0000
    47 H7         224.5040   253.1474   248.9590 H            1 CO8304   0.0000
    48 H3B        223.4955   251.9716   246.6001 H            1 CO8304   0.0000
    49 H4B        221.4471   250.2952   246.7261 H            1 CO8304   0.0000
    50 H5B1       222.8459   249.9721   244.9548 H            1 CO8304   0.0000
    51 H5B2       222.9409   248.5733   245.7920 H            1 CO8304   0.0000
    52 HCP1       228.3209   247.4809   246.7552 H            1 CO8304   0.0000
    53 HCP2       228.9087   248.9686   246.4270 H            1 CO8304   0.0000
    54 HDP1       232.4066   247.8495   247.0354 H            1 CO8304   0.0000
    55 HDP2       231.6860   247.5678   245.5973 H            1 CO8304   0.0000
    56 HDP3       231.6102   249.0532   246.2715 H            1 CO8304   0.0000
    57 HEP1       231.2346   246.0022   248.0042 H            1 CO8304   0.0000
    58 HEP2       229.6049   245.9043   247.9742 H            1 CO8304   0.0000
    59 HEP3       230.4610   245.6916   246.6000 H            1 CO8304   0.0000
    60 HAP        230.8182   247.9905   249.1843 H            1 CO8304   0.0000
    61 H21        230.6078   250.2782   249.1844 H            1 CO8304   0.0000
    62 H8P1       227.6651   247.9022   250.6186 H            1 CO8304   0.0000
    63 H8P2       229.3112   247.3660   250.6713 H            1 CO8304   0.0000
@<TRIPOS>BOND
     1    1    2      ar
     2    1    6      ar
     3    2    3      ar
     4    3    4      ar
     5    4    5      ar
     6    4   10       1
     7    5    6      ar
     8    5    8       1
     9    6    7       1
    10    8    9       2
    11    9   10       1
    12   10   11       1
    13   11   12       1
    14   11   21       1
    15   12   13       1
    16   12   14       1
    17   14   15       1
    18   14   20       1
    19   15   16       1
    20   16   17      ar
    21   16   18      ar
    22   16   19      ar
    23   20   21       1
    24   20   22       1
    25   22   23       1
    26   23   24       1
    27   24   25      ar
    28   24   26      ar
    29   24   27       1
    30   27   28       1
    31   28   29      ar
    32   28   30      ar
    33   28   31       1
    34   31   33       1
    35   32   33       1
    36   32   34       1
    37   32   35       1
    38   32   36       1
    39   36   37       1
    40   36   38       1
    41   38   39       2
    42   38   40      am
    43    2   41       1
    44    7   42       1
    45    7   43       1
    46    9   44       1
    47   11   45       1
    48   12   46       1
    49   13   47       1
    50   14   48       1
    51   40   63       1
    52   40   62       1
    53   20   49       1
    54   22   50       1
    55   22   51       1
    56   37   61       1
    57   36   60       1
    58   33   52       1
    59   33   53       1
    60   34   54       1
    61   34   55       1
    62   34   56       1
    63   35   57       1
    64   35   58       1
    65   35   59       1
@<TRIPOS>SUBSTRUCTURE
     1 CO8304      1 GROUP             4 B     CO8     0 **** CO8 B 304
