@<TRIPOS>MOLECULE
2gsd_NAD_1_ligand
   70    74     1     0     0
SMALL
NO_CHARGES


@<TRIPOS>ATOM
     1 PA          71.0110     9.9750    16.1210 P.3          1 NAD402   0.0000
     2 O1A         70.9100     9.9880    14.6180 O.co2        1 NAD402   0.0000
     3 O2A         70.3010    11.0790    16.7560 O.co2        1 NAD402  -1.0000
     4 O5B         72.5440     9.9520    16.5550 O.3          1 NAD402   0.0000
     5 C5B         73.5550     9.3400    15.7990 C.3          1 NAD402   0.0000
     6 C4B         74.8300    10.1610    16.0480 C.3          1 NAD402   0.0000
     7 O4B         75.9560     9.4380    15.5290 O.3          1 NAD402   0.0000
     8 C3B         74.7870    11.5250    15.3390 C.3          1 NAD402   0.0000
     9 O3B         75.1620    12.5390    16.2650 O.3          1 NAD402   0.0000
    10 C2B         75.8500    11.4250    14.2260 C.3          1 NAD402   0.0000
    11 O2B         76.5240    12.6650    13.9170 O.3          1 NAD402   0.0000
    12 C1B         76.7790    10.3860    14.8630 C.3          1 NAD402   0.0000
    13 N9A         77.6510     9.7280    13.8910 N.pl3        1 NAD402   0.0000
    14 C8A         77.3480     9.2650    12.6130 C.2          1 NAD402   0.0000
    15 N7A         78.4610     8.7290    12.0900 N.2          1 NAD402   0.0000
    16 C5A         79.4630     8.8630    12.9870 C.ar         1 NAD402   0.0000
    17 C6A         80.8070     8.5160    12.9670 C.ar         1 NAD402   0.0000
    18 N6A         81.4420     8.1770    11.8330 N.pl3        1 NAD402   0.0000
    19 N1A         81.5390     8.8160    14.0810 N.ar         1 NAD402   0.0000
    20 C2A         81.0450     9.4250    15.2160 C.ar         1 NAD402   0.0000
    21 N3A         79.7120     9.7880    15.2210 N.ar         1 NAD402   0.0000
    22 C4A         78.9560     9.4990    14.1370 C.ar         1 NAD402   0.0000
    23 O3          70.4410     8.5180    16.5460 O.3          1 NAD402   0.0000
    24 PN          70.1210     7.9560    18.0340 P.3          1 NAD402   0.0000
    25 O1N         71.1510     8.5210    18.9760 O.co2        1 NAD402   0.0000
    26 O2N         68.6480     7.9890    18.2590 O.co2        1 NAD402  -1.0000
    27 O5D         70.5410     6.4380    17.8280 O.3          1 NAD402   0.0000
    28 C5D         71.8650     6.1540    17.3550 C.3          1 NAD402   0.0000
    29 C4D         71.9720     4.6780    16.9710 C.3          1 NAD402   0.0000
    30 O4D         71.7430     3.8630    18.1130 O.3          1 NAD402   0.0000
    31 C3D         70.9270     4.2100    15.9510 C.3          1 NAD402   0.0000
    32 O3D         71.2830     4.5300    14.6250 O.3          1 NAD402   0.0000
    33 C2D         70.8700     2.7000    16.2340 C.3          1 NAD402   0.0000
    34 O2D         71.7950     1.9640    15.4470 O.3          1 NAD402   0.0000
    35 C1D         71.2300     2.5930    17.7350 C.3          1 NAD402   0.0000
    36 N1N         69.9790     2.3180    18.4820 N.ar         1 NAD402   1.0000
    37 C2N         69.8550     1.1260    19.1550 C.ar         1 NAD402   0.0000
    38 C3N         68.6860     0.8440    19.8520 C.ar         1 NAD402   0.0000
    39 C7N         68.5840    -0.3090    20.7950 C.2          1 NAD402   0.0000
    40 O7N         67.3556    -0.8346    21.2360 O.2          1 NAD402   0.0000
    41 N7N         69.7248    -0.7818    21.2456 N.am         1 NAD402   0.0000
    42 C4N         67.6450     1.7820    19.8490 C.ar         1 NAD402   0.0000
    43 C5N         67.7720     2.9910    19.1500 C.ar         1 NAD402   0.0000
    44 C6N         68.9680     3.2530    18.4580 C.ar         1 NAD402   0.0000
    45 H5B1        73.3180     9.3531    14.8276 H            1 NAD402   0.0000
    46 H5B2        73.6872     8.3947    16.0971 H            1 NAD402   0.0000
    47 H4B         74.9489    10.3007    17.0310 H            1 NAD402   0.0000
    48 H3B         73.8805    11.7038    14.9565 H            1 NAD402   0.0000
    49 H5          76.0879    12.3605    16.5979 H            1 NAD402   0.0000
    50 H2B         75.4378    11.0477    13.3967 H            1 NAD402   0.0000
    51 H7          76.9931    13.0019    14.7334 H            1 NAD402   0.0000
    52 H1B         77.3503    10.8449    15.5434 H            1 NAD402   0.0000
    53 H8A         76.4565     9.3221    12.1637 H            1 NAD402   0.0000
    54 H6A1        82.4114     7.9326    11.8567 H            1 NAD402   0.0000
    55 H6A2        80.9454     8.1690    10.9651 H            1 NAD402   0.0000
    56 H2A         81.6313     9.5977    16.0075 H            1 NAD402   0.0000
    57 H5D1        72.5263     6.3581    18.0768 H            1 NAD402   0.0000
    58 H5D2        72.0601     6.7204    16.5543 H            1 NAD402   0.0000
    59 H4D         72.8877     4.4954    16.6132 H            1 NAD402   0.0000
    60 H3D         70.0423     4.6230    16.1672 H            1 NAD402   0.0000
    61 H17         70.4550     4.6717    14.0825 H            1 NAD402   0.0000
    62 H2D         69.9429     2.3584    16.0800 H            1 NAD402   0.0000
    63 H19         71.5929     2.1034    14.4776 H            1 NAD402   0.0000
    64 H1D         71.9060     1.8728    17.8908 H            1 NAD402   0.0000
    65 H2N         70.6039     0.4634    19.1432 H            1 NAD402   0.0000
    66 H7N1        69.7285    -1.4985    21.9430 H            1 NAD402   0.0000
    67 H7N2        70.5890    -0.4249    20.8910 H            1 NAD402   0.0000
    68 H4N         66.8023     1.5871    20.3508 H            1 NAD402   0.0000
    69 H5N         67.0248     3.6556    19.1437 H            1 NAD402   0.0000
    70 H6N         69.0831     4.1090    17.9539 H            1 NAD402   0.0000
@<TRIPOS>BOND
     1    1    2      ar
     2    1    3      ar
     3    1    4       1
     4    1   23       1
     5    4    5       1
     6    5    6       1
     7    6    7       1
     8    6    8       1
     9    7   12       1
    10    8    9       1
    11    8   10       1
    12   10   11       1
    13   10   12       1
    14   12   13       1
    15   13   14       1
    16   13   22       1
    17   14   15       2
    18   15   16       1
    19   16   17      ar
    20   16   22      ar
    21   17   18       1
    22   17   19      ar
    23   19   20      ar
    24   20   21      ar
    25   21   22      ar
    26   23   24       1
    27   24   25      ar
    28   24   26      ar
    29   24   27       1
    30   27   28       1
    31   28   29       1
    32   29   30       1
    33   29   31       1
    34   30   35       1
    35   31   32       1
    36   31   33       1
    37   33   34       1
    38   33   35       1
    39   35   36       1
    40   36   37      ar
    41   36   44      ar
    42   37   38      ar
    43   38   39       1
    44   38   42      ar
    45   39   40       2
    46   39   41      am
    47   42   43      ar
    48   43   44      ar
    49   44   70       1
    50    5   45       1
    51    5   46       1
    52    6   47       1
    53    8   48       1
    54    9   49       1
    55   10   50       1
    56   11   51       1
    57   12   52       1
    58   14   53       1
    59   18   54       1
    60   18   55       1
    61   20   56       1
    62   43   69       1
    63   28   57       1
    64   28   58       1
    65   29   59       1
    66   31   60       1
    67   32   61       1
    68   33   62       1
    69   34   63       1
    70   35   64       1
    71   37   65       1
    72   41   66       1
    73   41   67       1
    74   42   68       1
@<TRIPOS>SUBSTRUCTURE
     1 NAD402      1 GROUP             4 A     NAD     0 **** NAD A 402
