@<TRIPOS>MOLECULE
3hrr_HC8_2_ligand
   37    38     1     0     0
SMALL
NO_CHARGES


@<TRIPOS>ATOM
     1 O21        -11.7710   -28.8730    14.9760 O.2          1 HC84000   0.0000
     2 C19        -11.5340   -30.0590    15.1640 C.2          1 HC84000   0.0000
     3 C20        -12.5380   -30.9120    15.9010 C.3          1 HC84000   0.0000
     4 C18        -10.2150   -30.5950    14.6300 C.ar         1 HC84000   0.0000
     5 C5          -9.4180   -29.7790    13.7840 C.ar         1 HC84000   0.0000
     6 C4          -9.7870   -28.3760    13.3060 C.3          1 HC84000   0.0000
     7 C2         -10.1580   -27.2730    14.3000 C.2          1 HC84000   0.0000
     8 O3         -11.1120   -26.5300    14.0340 O.2          1 HC84000   0.0000
     9 C1          -9.3260   -26.9820    15.5450 C.3          1 HC84000   0.0000
    10 C16         -9.7590   -31.8910    14.9730 C.ar         1 HC84000   0.0000
    11 O17        -10.4860   -32.7090    15.7990 O.3          1 HC84000   0.0000
    12 C15         -8.5350   -32.3800    14.4650 C.ar         1 HC84000   0.0000
    13 C7          -7.7750   -31.5540    13.6240 C.ar         1 HC84000   0.0000
    14 C6          -8.2200   -30.2750    13.2870 C.ar         1 HC84000   0.0000
    15 C13         -8.0440   -33.6660    14.8050 C.ar         1 HC84000   0.0000
    16 O14         -8.7250   -34.5300    15.6400 O.3          1 HC84000   0.0000
    17 C12         -6.8160   -34.0820    14.2770 C.ar         1 HC84000   0.0000
    18 C9          -6.0740   -33.2740    13.4140 C.ar         1 HC84000   0.0000
    19 C8          -6.5520   -31.9950    13.1080 C.ar         1 HC84000   0.0000
    20 O10         -4.8540   -33.7240    12.9010 O.3          1 HC84000   0.0000
    21 C11         -4.3810   -33.3040    11.6110 C.3          1 HC84000   0.0000
    22 H1         -12.1937   -31.8484    15.9689 H            1 HC84000   0.0000
    23 H2         -12.6800   -30.5416    16.8190 H            1 HC84000   0.0000
    24 H3         -13.4054   -30.9110    15.4033 H            1 HC84000   0.0000
    25 H4         -10.5709   -28.4818    12.6941 H            1 HC84000   0.0000
    26 H5          -9.0022   -28.0377    12.7868 H            1 HC84000   0.0000
    27 H6          -9.7407   -26.2279    16.0543 H            1 HC84000   0.0000
    28 H7          -9.2948   -27.7974    16.1231 H            1 HC84000   0.0000
    29 H8          -8.3971   -26.7300    15.2737 H            1 HC84000   0.0000
    30 H9         -10.1439   -33.6205    16.0274 H            1 HC84000   0.0000
    31 H10         -7.6672   -29.7065    12.6777 H            1 HC84000   0.0000
    32 H11         -8.3397   -35.4281    15.8520 H            1 HC84000   0.0000
    33 H12         -6.4605   -34.9832    14.5250 H            1 HC84000   0.0000
    34 H13         -6.0159   -31.3925    12.5167 H            1 HC84000   0.0000
    35 H14         -3.4964   -33.7316    11.4249 H            1 HC84000   0.0000
    36 H15         -5.0383   -33.5789    10.9093 H            1 HC84000   0.0000
    37 H16         -4.2791   -32.3093    11.6010 H            1 HC84000   0.0000
@<TRIPOS>BOND
     1    1    2       2
     2    2    3       1
     3    2    4       1
     4    4    5      ar
     5    4   10      ar
     6    5    6       1
     7    5   14      ar
     8    6    7       1
     9    7    8       2
    10    7    9       1
    11   10   11       1
    12   10   12      ar
    13   12   13      ar
    14   12   15      ar
    15   13   14      ar
    16   13   19      ar
    17   15   16       1
    18   15   17      ar
    19   17   18      ar
    20   18   19      ar
    21   18   20       1
    22   20   21       1
    23    3   22       1
    24    3   23       1
    25    3   24       1
    26    6   25       1
    27    6   26       1
    28    9   27       1
    29    9   28       1
    30    9   29       1
    31   11   30       1
    32   14   31       1
    33   16   32       1
    34   17   33       1
    35   19   34       1
    36   21   35       1
    37   21   36       1
    38   21   37       1
@<TRIPOS>SUBSTRUCTURE
     1 HC84000     1 GROUP             4 B     HC8     0 **** HC8 B4000
