@<TRIPOS>MOLECULE
1i0i_7HP_1_ligand
   14    15     1     0     0
SMALL
NO_CHARGES


@<TRIPOS>ATOM
     1 C9          37.7380    62.5280    27.8810 C.2          1 7HP800   0.0000
     2 C4          36.4850    62.9180    28.4040 C.2          1 7HP800   0.0000
     3 N3          36.0580    62.7860    29.6880 N.2          1 7HP800   0.0000
     4 C2          34.7140    62.9640    29.7800 C.2          1 7HP800   0.0000
     5 N1          33.9410    63.3820    28.7400 N.pl3        1 7HP800   0.0000
     6 C6          34.3630    63.6080    27.4660 C.2          1 7HP800   0.0000
     7 O6          33.5500    63.9700    26.6210 O.2          1 7HP800   0.0000
     8 C5          35.7350    63.3540    27.3250 C.2          1 7HP800   0.0000
     9 N7          36.5760    63.4360    26.2120 N.pl3        1 7HP800   0.0000
    10 N8          37.7170    62.8910    26.5830 N.2          1 7HP800   0.0000
    11 H1          38.4841    62.0772    28.3710 H            1 7HP800   0.0000
    12 H2          34.2699    62.7785    30.6565 H            1 7HP800   0.0000
    13 H3          32.9717    63.5376    28.9302 H            1 7HP800   0.0000
    14 H4          36.3571    63.8275    25.3183 H            1 7HP800   0.0000
@<TRIPOS>BOND
     1    1    2       1
     2    1   10       2
     3    2    3       1
     4    2    8       2
     5    3    4       2
     6    4    5       1
     7    5    6       1
     8    6    7       2
     9    6    8       1
    10    8    9       1
    11    9   10       1
    12    1   11       1
    13    4   12       1
    14    5   13       1
    15    9   14       1
@<TRIPOS>SUBSTRUCTURE
     1 7HP800      1 GROUP             4 A     7HP     0 **** 7HP A 800
