@<TRIPOS>MOLECULE
3p93_KDG_2_ligand
   21    20     1     0     0
SMALL
NO_CHARGES


@<TRIPOS>ATOM
     1 O1B        -56.1650   -23.5170    76.0110 O.3          1 KDG407   0.0000
     2 C1         -55.5050   -22.5160    76.8010 C.3          1 KDG407   0.0000
     3 C2         -54.6440   -23.1670    77.9010 C.3          1 KDG407   0.0000
     4 O2         -53.9080   -24.2660    77.3690 O.3          1 KDG407   0.0000
     5 C3         -53.6040   -22.2040    78.4850 C.3          1 KDG407   0.0000
     6 O3         -54.2290   -21.2040    79.2740 O.3          1 KDG407   0.0000
     7 C4         -52.6990   -22.9970    79.4170 C.3          1 KDG407   0.0000
     8 O5         -51.3210   -21.0330    79.5110 O.2          1 KDG407   0.0000
     9 C5         -51.4140   -22.2530    79.6730 C.2          1 KDG407   0.0000
    10 C6         -50.2550   -23.0890    80.1120 C.2          1 KDG407   0.0000
    11 O6A        -49.0100   -22.5960    80.1260 O.co2        1 KDG407   0.0000
    12 O6B        -50.4230   -24.2410    80.4420 O.co2        1 KDG407  -1.0000
    13 H1B        -55.4812   -24.1053    75.5793 H            1 KDG407   0.0000
    14 H2         -56.1929   -21.9288    77.2276 H            1 KDG407   0.0000
    15 H3         -54.9178   -21.9650    76.2081 H            1 KDG407   0.0000
    16 H4         -55.2393   -23.4937    78.6351 H            1 KDG407   0.0000
    17 H5         -54.4477   -25.1031    77.4584 H            1 KDG407   0.0000
    18 H6         -53.0677   -21.7848    77.7525 H            1 KDG407   0.0000
    19 H7         -55.1462   -21.0239    78.9186 H            1 KDG407   0.0000
    20 H8         -52.4889   -23.8801    78.9975 H            1 KDG407   0.0000
    21 H9         -53.1714   -23.1447    80.2859 H            1 KDG407   0.0000
@<TRIPOS>BOND
     1    1    2       1
     2    2    3       1
     3    3    4       1
     4    3    5       1
     5    5    6       1
     6    5    7       1
     7    7    9       1
     8    8    9       2
     9    9   10       1
    10   10   11      ar
    11   10   12      ar
    12    1   13       1
    13    2   14       1
    14    2   15       1
    15    3   16       1
    16    4   17       1
    17    5   18       1
    18    6   19       1
    19    7   20       1
    20    7   21       1
@<TRIPOS>SUBSTRUCTURE
     1 KDG407      1 GROUP             4 D     KDG     0 **** KDG D 407
