@<TRIPOS>MOLECULE
2w0h_FAD_3_ligand
   84    89     1     0     0
SMALL
NO_CHARGES


@<TRIPOS>ATOM
     1 PA          31.5040    56.1960    -8.0420 P.3          1 FAD1486   0.0000
     2 O1A         32.5910    55.5460    -7.2250 O.co2        1 FAD1486   0.0000
     3 O2A         30.5170    55.1510    -8.5270 O.co2        1 FAD1486  -1.0000
     4 O5B         32.1610    57.0330    -9.2580 O.3          1 FAD1486   0.0000
     5 C5B         33.2840    57.8660    -9.0630 C.3          1 FAD1486   0.0000
     6 C4B         34.2070    57.7900   -10.2740 C.3          1 FAD1486   0.0000
     7 O4B         34.8610    59.0290   -10.4760 O.3          1 FAD1486   0.0000
     8 C3B         35.3020    56.7480   -10.0920 C.3          1 FAD1486   0.0000
     9 O3B         35.1540    55.7440   -11.0700 O.3          1 FAD1486   0.0000
    10 C2B         36.6110    57.5050   -10.2640 C.3          1 FAD1486   0.0000
    11 O2B         37.5460    56.8190   -11.0690 O.3          1 FAD1486   0.0000
    12 C1B         36.1780    58.7950   -10.9350 C.3          1 FAD1486   0.0000
    13 N9A         37.0700    59.9340   -10.6380 N.pl3        1 FAD1486   0.0000
    14 C8A         37.7740    60.1690    -9.4840 C.2          1 FAD1486   0.0000
    15 N7A         38.4690    61.3220    -9.6200 N.2          1 FAD1486   0.0000
    16 C5A         38.2230    61.8330   -10.8470 C.ar         1 FAD1486   0.0000
    17 C6A         38.6710    62.9830   -11.4980 C.ar         1 FAD1486   0.0000
    18 N6A         39.6260    63.7350   -10.9550 N.pl3        1 FAD1486   0.0000
    19 N1A         38.2380    63.2500   -12.7800 N.ar         1 FAD1486   0.0000
    20 C2A         37.3670    62.3830   -13.4150 C.ar         1 FAD1486   0.0000
    21 N3A         36.9260    61.2440   -12.7650 N.ar         1 FAD1486   0.0000
    22 C4A         37.3450    60.9690   -11.5000 C.ar         1 FAD1486   0.0000
    23 N1          26.5170    50.9810    -2.2400 N.2          1 FAD1486   0.0000
    24 C2          25.3260    50.2760    -2.2870 C.2          1 FAD1486   0.0000
    25 O2          24.2710    50.8440    -2.5700 O.2          1 FAD1486   0.0000
    26 N3          25.3130    48.9220    -2.0120 N.pl3        1 FAD1486   0.0000
    27 C4          26.4840    48.2680    -1.6910 C.2          1 FAD1486   0.0000
    28 O4          26.4500    47.0640    -1.4490 O.2          1 FAD1486   0.0000
    29 C4X         27.6870    48.9700    -1.6440 C.2          1 FAD1486   0.0000
    30 N5          28.8610    48.3120    -1.3270 N.2          1 FAD1486   0.0000
    31 C5X         30.0600    48.9960    -1.2820 C.ar         1 FAD1486   0.0000
    32 C6          31.2320    48.3110    -0.9570 C.ar         1 FAD1486   0.0000
    33 C7          32.4470    48.9890    -0.9060 C.ar         1 FAD1486   0.0000
    34 C7M         33.6930    48.2310    -0.5520 C.3          1 FAD1486   0.0000
    35 C8          32.4830    50.3610    -1.1830 C.ar         1 FAD1486   0.0000
    36 C8M         33.7720    51.1300    -1.1330 C.3          1 FAD1486   0.0000
    37 C9          31.3090    51.0420    -1.5050 C.ar         1 FAD1486   0.0000
    38 C9A         30.0880    50.3670    -1.5560 C.ar         1 FAD1486   0.0000
    39 N10         28.9080    51.0360    -1.8800 N.pl3        1 FAD1486   0.0000
    40 C10         27.7050    50.3380    -1.9220 C.2          1 FAD1486   0.0000
    41 C1'         28.9430    52.5040    -2.2210 C.3          1 FAD1486   0.0000
    42 C2'         28.6720    52.7560    -3.7060 C.3          1 FAD1486   0.0000
    43 O2'         29.5960    52.0410    -4.4970 O.3          1 FAD1486   0.0000
    44 C3'         28.7220    54.2530    -4.0060 C.3          1 FAD1486   0.0000
    45 O3'         27.7440    54.8830    -3.2020 O.3          1 FAD1486   0.0000
    46 C4'         28.4670    54.6230    -5.4740 C.3          1 FAD1486   0.0000
    47 O4'         29.4640    54.0820    -6.3170 O.3          1 FAD1486   0.0000
    48 C5'         28.4260    56.1440    -5.6310 C.3          1 FAD1486   0.0000
    49 O5'         28.4010    56.5580    -6.9790 O.3          1 FAD1486   0.0000
    50 P           29.2870    57.8230    -7.4420 P.3          1 FAD1486   0.0000
    51 O1P         29.1030    58.0480    -8.9290 O.co2        1 FAD1486   0.0000
    52 O2P         28.9770    59.0710    -6.6410 O.co2        1 FAD1486  -1.0000
    53 O3P         30.8040    57.3530    -7.1650 O.3          1 FAD1486   0.0000
    54 H5B1        33.7810    57.5664    -8.2486 H            1 FAD1486   0.0000
    55 H5B2        32.9783    58.8100    -8.9385 H            1 FAD1486   0.0000
    56 H4B         33.6685    57.5647   -11.0859 H            1 FAD1486   0.0000
    57 H3B         35.2510    56.3491    -9.1764 H            1 FAD1486   0.0000
    58 H5          35.2270    56.1519   -11.9801 H            1 FAD1486   0.0000
    59 H2B         37.0111    57.7031    -9.3692 H            1 FAD1486   0.0000
    60 H7          37.4197    57.0830   -12.0252 H            1 FAD1486   0.0000
    61 H1B         36.1547    58.6524   -11.9245 H            1 FAD1486   0.0000
    62 H8A         37.7735    59.5831    -8.6736 H            1 FAD1486   0.0000
    63 H6A1        39.9429    64.5580   -11.4263 H            1 FAD1486   0.0000
    64 H6A2        40.0264    63.4768   -10.0758 H            1 FAD1486   0.0000
    65 H2A         37.0558    62.5797   -14.3448 H            1 FAD1486   0.0000
    66 H13         24.4519    48.4147    -2.0458 H            1 FAD1486   0.0000
    67 H14         31.1989    47.3311    -0.7604 H            1 FAD1486   0.0000
    68 H7M1        34.4752    48.8540    -0.5579 H            1 FAD1486   0.0000
    69 H7M2        33.5923    47.8310     0.3590 H            1 FAD1486   0.0000
    70 H7M3        33.8417    47.5029    -1.2212 H            1 FAD1486   0.0000
    71 H8M1        33.5974    52.0884    -1.3588 H            1 FAD1486   0.0000
    72 H8M2        34.1607    51.0696    -0.2136 H            1 FAD1486   0.0000
    73 H8M3        34.4162    50.7440    -1.7933 H            1 FAD1486   0.0000
    74 H21         31.3422    52.0220    -1.7010 H            1 FAD1486   0.0000
    75 H1'1        29.8462    52.8669    -1.9918 H            1 FAD1486   0.0000
    76 H1'2        28.2468    52.9772    -1.6812 H            1 FAD1486   0.0000
    77 H2'         27.7531    52.4235    -3.9185 H            1 FAD1486   0.0000
    78 H25         29.7573    52.5361    -5.3507 H            1 FAD1486   0.0000
    79 H3'         29.6220    54.6002    -3.7424 H            1 FAD1486   0.0000
    80 H27         28.0394    55.8135    -2.9855 H            1 FAD1486   0.0000
    81 H4'         27.5806    54.2499    -5.7478 H            1 FAD1486   0.0000
    82 H29         29.9328    54.8234    -6.7972 H            1 FAD1486   0.0000
    83 H5'1        29.2374    56.5316    -5.1935 H            1 FAD1486   0.0000
    84 H5'2        27.6051    56.4894    -5.1762 H            1 FAD1486   0.0000
@<TRIPOS>BOND
     1    1    2      ar
     2    1    3      ar
     3    1    4       1
     4    1   53       1
     5    4    5       1
     6    5    6       1
     7    6    7       1
     8    6    8       1
     9    7   12       1
    10    8    9       1
    11    8   10       1
    12   10   11       1
    13   10   12       1
    14   12   13       1
    15   13   14       1
    16   13   22       1
    17   14   15       2
    18   15   16       1
    19   16   17      ar
    20   16   22      ar
    21   17   18       1
    22   17   19      ar
    23   19   20      ar
    24   20   21      ar
    25   21   22      ar
    26   23   24       1
    27   23   40       2
    28   24   25       2
    29   24   26       1
    30   26   27       1
    31   27   28       2
    32   27   29       1
    33   29   30       2
    34   29   40       1
    35   30   31       1
    36   31   32      ar
    37   31   38      ar
    38   32   33      ar
    39   33   34       1
    40   33   35      ar
    41   35   36       1
    42   35   37      ar
    43   37   38      ar
    44   38   39       1
    45   39   40       1
    46   39   41       1
    47   41   42       1
    48   42   43       1
    49   42   44       1
    50   44   45       1
    51   44   46       1
    52   46   47       1
    53   46   48       1
    54   48   49       1
    55   49   50       1
    56   50   51      ar
    57   50   52      ar
    58   50   53       1
    59   48   84       1
    60    5   54       1
    61    5   55       1
    62    6   56       1
    63    8   57       1
    64    9   58       1
    65   10   59       1
    66   11   60       1
    67   12   61       1
    68   14   62       1
    69   18   63       1
    70   18   64       1
    71   20   65       1
    72   26   66       1
    73   32   67       1
    74   34   68       1
    75   34   69       1
    76   34   70       1
    77   36   71       1
    78   36   72       1
    79   36   73       1
    80   37   74       1
    81   41   75       1
    82   41   76       1
    83   42   77       1
    84   43   78       1
    85   44   79       1
    86   45   80       1
    87   46   81       1
    88   47   82       1
    89   48   83       1
@<TRIPOS>SUBSTRUCTURE
     1 FAD1486     1 GROUP             4 B     FAD     0 **** FAD B1486
