@<TRIPOS>MOLECULE
2z08_ATP_1_ligand
   43    45     1     0     0
SMALL
NO_CHARGES


@<TRIPOS>ATOM
     1 PG          19.5360     2.8370    12.0250 P.3          1 ATP1001   0.0000
     2 O1G         20.2120     1.6680    12.6460 O.co2        1 ATP1001   0.0000
     3 O2G         18.6120     2.5290    10.7520 O.co2        1 ATP1001  -1.0000
     4 O3G         18.8720     3.8930    13.0070 O.co2        1 ATP1001  -1.0000
     5 PB          21.2450     5.0880    11.3510 P.3          1 ATP1001   0.0000
     6 O1B         22.5240     5.3020    10.6390 O.co2        1 ATP1001   0.0000
     7 O2B         21.0550     5.6260    12.8410 O.co2        1 ATP1001  -1.0000
     8 O3B         20.7290     3.5770    11.2680 O.3          1 ATP1001   0.0000
     9 PA          18.8700     6.7610    10.8470 P.3          1 ATP1001   0.0000
    10 O1A         17.9010     6.6010     9.7550 O.co2        1 ATP1001   0.0000
    11 O2A         18.4560     6.5910    12.3520 O.co2        1 ATP1001  -1.0000
    12 O3A         20.1930     5.9070    10.4560 O.3          1 ATP1001   0.0000
    13 O5'         19.4830     8.2450    10.7140 O.3          1 ATP1001   0.0000
    14 C5'         19.2070     9.1840     9.6650 C.3          1 ATP1001   0.0000
    15 C4'         18.6270    10.4630    10.2660 C.3          1 ATP1001   0.0000
    16 O4'         17.3490    10.1510    10.8550 O.3          1 ATP1001   0.0000
    17 C3'         19.4450    11.0510    11.4150 C.3          1 ATP1001   0.0000
    18 O3'         20.5780    11.7640    10.8980 O.3          1 ATP1001   0.0000
    19 C2'         18.3870    12.0190    11.9490 C.3          1 ATP1001   0.0000
    20 O2'         18.2930    13.1440    11.0670 O.3          1 ATP1001   0.0000
    21 C1'         17.1080    11.1740    11.8400 C.3          1 ATP1001   0.0000
    22 N9          16.8510    10.4510    13.1020 N.pl3        1 ATP1001   0.0000
    23 C8          17.2050     9.2130    13.4430 C.2          1 ATP1001   0.0000
    24 N7          16.7960     8.9490    14.6860 N.2          1 ATP1001   0.0000
    25 C5          16.1530    10.0250    15.1410 C.ar         1 ATP1001   0.0000
    26 C6          15.5230    10.3370    16.3420 C.ar         1 ATP1001   0.0000
    27 N6          15.4990     9.5170    17.3980 N.pl3        1 ATP1001   0.0000
    28 N1          14.9580    11.5480    16.4150 N.ar         1 ATP1001   0.0000
    29 C2          14.9840    12.4320    15.4280 C.ar         1 ATP1001   0.0000
    30 N3          15.5950    12.1810    14.2760 N.ar         1 ATP1001   0.0000
    31 C4          16.1730    10.9740    14.1280 C.ar         1 ATP1001   0.0000
    32 H5'1        18.5475     8.7866     9.0270 H            1 ATP1001   0.0000
    33 H5'2        20.0539     9.3986     9.1784 H            1 ATP1001   0.0000
    34 H4'         18.5096    11.1500     9.5489 H            1 ATP1001   0.0000
    35 H3'         19.7050    10.3605    12.0900 H            1 ATP1001   0.0000
    36 H5          21.1536    11.1384    10.3715 H            1 ATP1001   0.0000
    37 H2'         18.5740    12.2961    12.8915 H            1 ATP1001   0.0000
    38 H7          18.0233    13.9541    11.5876 H            1 ATP1001   0.0000
    39 H1'         16.3243    11.7404    11.5849 H            1 ATP1001   0.0000
    40 H9          17.7033     8.5758    12.8550 H            1 ATP1001   0.0000
    41 H10         15.0301     9.7950    18.2364 H            1 ATP1001   0.0000
    42 H11         15.9500     8.6258    17.3494 H            1 ATP1001   0.0000
    43 H12         14.5301    13.3140    15.5545 H            1 ATP1001   0.0000
@<TRIPOS>BOND
     1    1    2      ar
     2    1    3      ar
     3    1    4      ar
     4    1    8       1
     5    5    6      ar
     6    5    7      ar
     7    5    8       1
     8    5   12       1
     9    9   10      ar
    10    9   11      ar
    11    9   12       1
    12    9   13       1
    13   13   14       1
    14   14   15       1
    15   15   16       1
    16   15   17       1
    17   16   21       1
    18   17   18       1
    19   17   19       1
    20   19   20       1
    21   19   21       1
    22   21   22       1
    23   22   23       1
    24   22   31       1
    25   23   24       2
    26   24   25       1
    27   25   26      ar
    28   25   31      ar
    29   26   27       1
    30   26   28      ar
    31   28   29      ar
    32   29   30      ar
    33   30   31      ar
    34   29   43       1
    35   27   42       1
    36   27   41       1
    37   23   40       1
    38   14   32       1
    39   14   33       1
    40   15   34       1
    41   17   35       1
    42   18   36       1
    43   19   37       1
    44   20   38       1
    45   21   39       1
@<TRIPOS>SUBSTRUCTURE
     1 ATP1001     1 GROUP             4 A     ATP     0 **** ATP A1001
