@<TRIPOS>MOLECULE
4agw_NG7_2_ligand
   76    81     1     0     0
SMALL
NO_CHARGES


@<TRIPOS>ATOM
     1 C           12.5400    32.2790   -35.6250 C.3          1 NG71534   0.0000
     2 F1          13.0350    32.2110   -34.3730 F            1 NG71534   0.0000
     3 N           19.8120    32.8590   -35.4500 N.4          1 NG71534   1.0000
     4 O           10.1480    36.3940   -36.7500 O.2          1 NG71534   0.0000
     5 S            3.4750    42.1470   -35.5180 S.3          1 NG71534   0.0000
     6 C01          3.6600    38.5540   -36.9710 C.ar         1 NG71534   0.0000
     7 F3          12.7160    31.0630   -36.1620 F            1 NG71534   0.0000
     8 N01          5.4870    40.6970   -36.9060 N.ar         1 NG71534   0.0000
     9 O01          1.8290    43.8960   -34.2270 O.2          1 NG71534   0.0000
    10 C02          3.2450    39.7450   -36.3510 C.ar         1 NG71534   0.0000
    11 F2          11.2130    32.2970   -35.4070 F            1 NG71534   0.0000
    12 N02          1.9550    40.0050   -35.7340 N.2          1 NG71534   0.0000
    13 C03          4.2410    40.7630   -36.3720 C.ar         1 NG71534   0.0000
    14 N03          0.8450    41.8590   -34.4750 N.am         1 NG71534   0.0000
    15 C04          5.8820    39.5100   -37.5280 C.ar         1 NG71534   0.0000
    16 N04         11.9400    36.6490   -38.1530 N.am         1 NG71534   0.0000
    17 C05          4.9490    38.4490   -37.5360 C.ar         1 NG71534   0.0000
    18 N05         17.0280    32.6620   -36.3650 N.4          1 NG71534   1.0000
    19 C06          1.8720    41.2150   -35.2180 C.2          1 NG71534   0.0000
    20 C07          0.8120    43.2360   -34.0390 C.2          1 NG71534   0.0000
    21 C08         -0.3050    43.8190   -33.1560 C.3          1 NG71534   0.0000
    22 C09         -0.0230    44.1920   -31.6900 C.3          1 NG71534   0.0000
    23 C10         -0.1360    45.2900   -32.6960 C.3          1 NG71534   0.0000
    24 C11          7.3040    39.3130   -38.1660 C.ar         1 NG71534   0.0000
    25 C12          7.7070    40.0620   -39.2860 C.ar         1 NG71534   0.0000
    26 C13          8.9740    39.8660   -39.8510 C.ar         1 NG71534   0.0000
    27 C14          9.9010    38.9280   -39.3740 C.ar         1 NG71534   0.0000
    28 C15          9.5850    38.1330   -38.2800 C.ar         1 NG71534   0.0000
    29 C16          8.2840    38.3630   -37.7280 C.ar         1 NG71534   0.0000
    30 C17         10.5970    37.0200   -37.7010 C.2          1 NG71534   0.0000
    31 C18         12.8200    35.5780   -37.6680 C.ar         1 NG71534   0.0000
    32 C19         14.1860    35.4860   -37.9260 C.ar         1 NG71534   0.0000
    33 C20         14.9930    34.4330   -37.4750 C.ar         1 NG71534   0.0000
    34 C21         14.5640    33.3480   -36.7260 C.ar         1 NG71534   0.0000
    35 C22         13.1720    33.4150   -36.4550 C.ar         1 NG71534   0.0000
    36 C23         12.3440    34.4680   -36.9060 C.ar         1 NG71534   0.0000
    37 C24         15.5710    32.2630   -36.2650 C.3          1 NG71534   0.0000
    38 C25         18.0510    31.6410   -36.7360 C.3          1 NG71534   0.0000
    39 C26         19.5550    32.0290   -36.6510 C.3          1 NG71534   0.0000
    40 C27         19.0430    34.1290   -35.4640 C.3          1 NG71534   0.0000
    41 C28         17.5240    33.9230   -35.7430 C.3          1 NG71534   0.0000
    42 C29         21.2690    32.9720   -35.0690 C.3          1 NG71534   0.0000
    43 C30         21.9080    34.2030   -35.7190 C.3          1 NG71534   0.0000
    44 H1           3.0361    37.7736   -37.0122 H            1 NG71534   0.0000
    45 H2           0.0571    41.2956   -34.2263 H            1 NG71534   0.0000
    46 H3          12.3103    37.2040   -38.8979 H            1 NG71534   0.0000
    47 H4           5.2142    37.5838   -37.9616 H            1 NG71534   0.0000
    48 H5          -1.2370    43.5246   -33.3675 H            1 NG71534   0.0000
    49 H6           0.8666    43.9788   -31.2860 H            1 NG71534   0.0000
    50 H7          -0.7386    44.0742   -31.0015 H            1 NG71534   0.0000
    51 H8          -0.9274    45.9010   -32.6798 H            1 NG71534   0.0000
    52 H9           0.6777    45.8056   -32.9643 H            1 NG71534   0.0000
    53 H10          7.0856    40.7384   -39.6814 H            1 NG71534   0.0000
    54 H11          9.2317    40.4262   -40.6383 H            1 NG71534   0.0000
    55 H12         10.7899    38.8315   -39.8218 H            1 NG71534   0.0000
    56 H13          8.0294    37.7946   -36.9457 H            1 NG71534   0.0000
    57 H14         14.6147    36.2123   -38.4633 H            1 NG71534   0.0000
    58 H15         15.9633    34.4671   -37.7143 H            1 NG71534   0.0000
    59 H16         11.3707    34.4338   -36.6789 H            1 NG71534   0.0000
    60 H17         15.3742    32.0423   -35.3097 H            1 NG71534   0.0000
    61 H18         15.4321    31.4499   -36.8304 H            1 NG71534   0.0000
    62 H19         17.8691    31.3715   -37.6817 H            1 NG71534   0.0000
    63 H20         17.9149    30.8548   -36.1333 H            1 NG71534   0.0000
    64 H21         20.1068    31.1966   -36.5996 H            1 NG71534   0.0000
    65 H22         19.8077    32.5465   -37.4685 H            1 NG71534   0.0000
    66 H23         19.4197    34.7209   -36.1765 H            1 NG71534   0.0000
    67 H24         19.1454    34.5725   -34.5736 H            1 NG71534   0.0000
    68 H25         17.0577    34.0098   -34.8627 H            1 NG71534   0.0000
    69 H26         17.2406    34.6692   -36.3454 H            1 NG71534   0.0000
    70 H27         21.7523    32.1518   -35.3750 H            1 NG71534   0.0000
    71 H28         21.3426    33.0509   -34.0748 H            1 NG71534   0.0000
    72 H29         22.8706    34.2581   -35.4538 H            1 NG71534   0.0000
    73 H30         21.8401    34.1277   -36.7138 H            1 NG71534   0.0000
    74 H31         21.4304    35.0269   -35.4137 H            1 NG71534   0.0000
    75 H32         19.4046    32.3362   -34.7012 H            1 NG71534   0.0000
    76 H33         16.9499    33.0446   -37.2856 H            1 NG71534   0.0000
@<TRIPOS>BOND
     1    1    2       1
     2    1    7       1
     3    1   11       1
     4    1   35       1
     5    3   39       1
     6    3   40       1
     7    3   42       1
     8    4   30       2
     9    5   13       1
    10    5   19       1
    11    6   10      ar
    12    6   17      ar
    13    8   13      ar
    14    8   15      ar
    15    9   20       2
    16   10   12       1
    17   10   13      ar
    18   12   19       2
    19   14   19       1
    20   14   20      am
    21   15   17      ar
    22   15   24       1
    23   16   30      am
    24   16   31       1
    25   18   37       1
    26   18   38       1
    27   18   41       1
    28   20   21       1
    29   21   22       1
    30   21   23       1
    31   22   23       1
    32   24   25      ar
    33   24   29      ar
    34   25   26      ar
    35   26   27      ar
    36   27   28      ar
    37   28   29      ar
    38   28   30       1
    39   31   32      ar
    40   31   36      ar
    41   32   33      ar
    42   33   34      ar
    43   34   35      ar
    44   34   37       1
    45   35   36      ar
    46   38   39       1
    47   40   41       1
    48   42   43       1
    49    6   44       1
    50   14   45       1
    51   16   46       1
    52   17   47       1
    53   21   48       1
    54   22   49       1
    55   22   50       1
    56   23   51       1
    57   23   52       1
    58   25   53       1
    59   26   54       1
    60   27   55       1
    61   29   56       1
    62   32   57       1
    63   33   58       1
    64   36   59       1
    65   37   60       1
    66   37   61       1
    67   38   62       1
    68   38   63       1
    69   39   64       1
    70   39   65       1
    71   40   66       1
    72   40   67       1
    73   41   68       1
    74   41   69       1
    75   42   70       1
    76   42   71       1
    77   43   72       1
    78   43   73       1
    79   43   74       1
    80    3   75       1
    81   18   76       1
@<TRIPOS>SUBSTRUCTURE
     1 NG71534     1 GROUP             4 B     NG7     0 **** NG7 B1534
