@<TRIPOS>MOLECULE
4ctk_SAM_1_ligand
   50    52     1     0     0
SMALL
NO_CHARGES


@<TRIPOS>ATOM
     1 N           38.0720    43.3210    -7.0170 N.4          1 SAM1263   1.0000
     2 CA          37.1780    44.3830    -7.5010 C.3          1 SAM1263   0.0000
     3 C           37.9700    45.4860    -8.2040 C.2          1 SAM1263   0.0000
     4 O           39.2200    45.3390    -8.2820 O.co2        1 SAM1263   0.0000
     5 OXT         37.3180    46.4140    -8.7400 O.co2        1 SAM1263  -1.0000
     6 CB          36.3350    44.9070    -6.3310 C.3          1 SAM1263   0.0000
     7 CG          35.3920    43.7810    -5.8590 C.3          1 SAM1263   0.0000
     8 SD          34.1610    44.3550    -4.6750 S.3          1 SAM1263   1.0000
     9 CE          35.0180    44.2980    -3.1190 C.3          1 SAM1263   0.0000
    10 C5'         33.2050    42.8740    -4.5800 C.3          1 SAM1263   0.0000
    11 C4'         32.1540    42.8130    -5.7070 C.3          1 SAM1263   0.0000
    12 O4'         31.4760    41.5590    -5.5380 O.3          1 SAM1263   0.0000
    13 C3'         31.0760    43.9090    -5.7190 C.3          1 SAM1263   0.0000
    14 O3'         31.1210    44.6210    -6.9570 O.3          1 SAM1263   0.0000
    15 C2'         29.7580    43.1390    -5.5330 C.3          1 SAM1263   0.0000
    16 O2'         28.7270    43.7290    -6.3190 O.3          1 SAM1263   0.0000
    17 C1'         30.1460    41.7510    -6.0050 C.3          1 SAM1263   0.0000
    18 N9          29.3310    40.6420    -5.5210 N.pl3        1 SAM1263   0.0000
    19 C8          28.7890    40.5060    -4.2670 C.2          1 SAM1263   0.0000
    20 N7          28.1240    39.3900    -4.0910 N.2          1 SAM1263   0.0000
    21 C5          28.2160    38.7560    -5.3200 C.ar         1 SAM1263   0.0000
    22 C6          27.6770    37.5450    -5.8050 C.ar         1 SAM1263   0.0000
    23 N6          26.8210    36.7970    -5.1000 N.pl3        1 SAM1263   0.0000
    24 N1          27.9680    37.1910    -7.0790 N.ar         1 SAM1263   0.0000
    25 C2          28.7190    38.0150    -7.8250 C.ar         1 SAM1263   0.0000
    26 N3          29.2430    39.2030    -7.4930 N.ar         1 SAM1263   0.0000
    27 C4          28.9610    39.5130    -6.2110 C.ar         1 SAM1263   0.0000
    28 H1          37.9863    43.2400    -6.0240 H            1 SAM1263   0.0000
    29 H2          37.8208    42.4529    -7.4452 H            1 SAM1263   0.0000
    30 HA          36.5553    43.9782    -8.1706 H            1 SAM1263   0.0000
    31 HB1         35.7959    45.6942    -6.6305 H            1 SAM1263   0.0000
    32 HB2         36.9353    45.1806    -5.5795 H            1 SAM1263   0.0000
    33 HG1         35.9403    43.0642    -5.4282 H            1 SAM1263   0.0000
    34 HG2         34.9187    43.4052    -6.6557 H            1 SAM1263   0.0000
    35 HE1         34.4057    44.6037    -2.3898 H            1 SAM1263   0.0000
    36 HE2         35.3132    43.3604    -2.9352 H            1 SAM1263   0.0000
    37 HE3         35.8172    44.8978    -3.1565 H            1 SAM1263   0.0000
    38 H5'1        32.7375    42.8440    -3.6965 H            1 SAM1263   0.0000
    39 H5'2        33.8156    42.0862    -4.6609 H            1 SAM1263   0.0000
    40 H4'         32.6244    42.8111    -6.5894 H            1 SAM1263   0.0000
    41 H3'         31.2172    44.5385    -4.9550 H            1 SAM1263   0.0000
    42 H15         30.8211    45.5636    -6.8105 H            1 SAM1263   0.0000
    43 H2'         29.4960    43.1206    -4.5681 H            1 SAM1263   0.0000
    44 H17         27.8442    43.5881    -5.8709 H            1 SAM1263   0.0000
    45 H1'         30.1490    41.7382    -7.0049 H            1 SAM1263   0.0000
    46 H19         28.8923    41.1968    -3.5514 H            1 SAM1263   0.0000
    47 H20         26.4656    35.9457    -5.4860 H            1 SAM1263   0.0000
    48 H21         26.5365    37.0891    -4.1869 H            1 SAM1263   0.0000
    49 H22         28.9141    37.7005    -8.7540 H            1 SAM1263   0.0000
    50 H23         39.0170    43.5477    -7.2526 H            1 SAM1263   0.0000
@<TRIPOS>BOND
     1    1    2       1
     2    2    3       1
     3    2    6       1
     4    3    4      ar
     5    3    5      ar
     6    6    7       1
     7    7    8       1
     8    8    9       1
     9    8   10       1
    10   10   11       1
    11   11   12       1
    12   11   13       1
    13   12   17       1
    14   13   14       1
    15   13   15       1
    16   15   16       1
    17   15   17       1
    18   17   18       1
    19   18   19       1
    20   18   27       1
    21   19   20       2
    22   20   21       1
    23   21   22      ar
    24   21   27      ar
    25   22   23       1
    26   22   24      ar
    27   24   25      ar
    28   25   26      ar
    29   26   27      ar
    30    1   28       1
    31    1   29       1
    32    2   30       1
    33    1   50       1
    34    6   31       1
    35    6   32       1
    36    7   33       1
    37    7   34       1
    38    9   35       1
    39    9   36       1
    40    9   37       1
    41   10   38       1
    42   10   39       1
    43   11   40       1
    44   13   41       1
    45   14   42       1
    46   15   43       1
    47   16   44       1
    48   17   45       1
    49   19   46       1
    50   23   47       1
    51   23   48       1
    52   25   49       1
@<TRIPOS>SUBSTRUCTURE
     1 SAM1263     1 GROUP             4 A     SAM     0 **** SAM A1263
