@<TRIPOS>MOLECULE
1gm7_PNN_1_ligand
   40    42     1     0     0
SMALL
NO_CHARGES


@<TRIPOS>ATOM
     1 O8          11.8400    -2.0680     2.4550 O.2          1 PNN1577   0.0000
     2 C7          12.9740    -2.4500     2.6530 C.2          1 PNN1577   0.0000
     3 N4          13.3820    -3.7010     3.0970 N.am         1 PNN1577   0.0000
     4 C3          12.6650    -4.5860     4.0280 C.3          1 PNN1577   0.0000
     5 C11         12.2870    -5.8540     3.2870 C.2          1 PNN1577   0.0000
     6 O13         12.6270    -6.2380     2.2000 O.co2        1 PNN1577   0.0000
     7 O12         11.4270    -6.5760     4.0240 O.co2        1 PNN1577  -1.0000
     8 C2          13.6290    -4.8100     5.2520 C.3          1 PNN1577   0.0000
     9 C10         14.6160    -5.9320     5.0080 C.3          1 PNN1577   0.0000
    10 C9          12.8280    -4.9260     6.5590 C.3          1 PNN1577   0.0000
    11 S1          14.5430    -3.2020     5.3420 S.3          1 PNN1577   0.0000
    12 C5          14.7020    -3.1740     3.5270 C.3          1 PNN1577   0.0000
    13 C6          14.3850    -1.8770     2.7170 C.3          1 PNN1577   0.0000
    14 N14         14.4770    -0.6430     3.4510 N.am         1 PNN1577   0.0000
    15 C15         15.2600     0.3430     2.9520 C.2          1 PNN1577   0.0000
    16 O16         15.9610     0.3800     1.9820 O.2          1 PNN1577   0.0000
    17 C17         15.2860     1.5740     3.8400 C.3          1 PNN1577   0.0000
    18 C18         16.7030     1.9440     4.3440 C.ar         1 PNN1577   0.0000
    19 C19         17.3250     3.0590     3.7840 C.ar         1 PNN1577   0.0000
    20 C20         18.5950     3.5230     4.2140 C.ar         1 PNN1577   0.0000
    21 C21         19.1450     2.7090     5.2260 C.ar         1 PNN1577   0.0000
    22 C22         18.5650     1.6150     5.7570 C.ar         1 PNN1577   0.0000
    23 C23         17.3050     1.1770     5.3100 C.ar         1 PNN1577   0.0000
    24 H1          11.8335    -4.1284     4.3431 H            1 PNN1577   0.0000
    25 H2          15.2054    -6.0376     5.8089 H            1 PNN1577   0.0000
    26 H3          14.1185    -6.7841     4.8456 H            1 PNN1577   0.0000
    27 H4          15.1760    -5.7153     4.2083 H            1 PNN1577   0.0000
    28 H5          13.4566    -5.0677     7.3237 H            1 PNN1577   0.0000
    29 H6          12.3076    -4.0850     6.7068 H            1 PNN1577   0.0000
    30 H7          12.1988    -5.7008     6.4967 H            1 PNN1577   0.0000
    31 H8          15.4821    -3.6929     3.1776 H            1 PNN1577   0.0000
    32 H9          14.8403    -1.8440     1.8273 H            1 PNN1577   0.0000
    33 H10         13.9760    -0.5166     4.3071 H            1 PNN1577   0.0000
    34 H11         14.7024     1.4037     4.6339 H            1 PNN1577   0.0000
    35 H12         14.9235     2.3471     3.3196 H            1 PNN1577   0.0000
    36 H13         16.8574     3.5514     3.0499 H            1 PNN1577   0.0000
    37 H14         19.0478     4.3335     3.8425 H            1 PNN1577   0.0000
    38 H15         20.0440     2.9663     5.5804 H            1 PNN1577   0.0000
    39 H16         19.0363     1.1076     6.4784 H            1 PNN1577   0.0000
    40 H17         16.8722     0.3530     5.6756 H            1 PNN1577   0.0000
@<TRIPOS>BOND
     1    1    2       2
     2    2    3      am
     3    2   13       1
     4    3    4       1
     5    3   12       1
     6    4    5       1
     7    4    8       1
     8    5    6      ar
     9    5    7      ar
    10    8    9       1
    11    8   10       1
    12    8   11       1
    13   11   12       1
    14   12   13       1
    15   13   14       1
    16   14   15      am
    17   15   16       2
    18   15   17       1
    19   17   18       1
    20   18   19      ar
    21   18   23      ar
    22   19   20      ar
    23   20   21      ar
    24   21   22      ar
    25   22   23      ar
    26    4   24       1
    27   23   40       1
    28    9   25       1
    29    9   26       1
    30    9   27       1
    31   10   28       1
    32   10   29       1
    33   10   30       1
    34   12   31       1
    35   13   32       1
    36   14   33       1
    37   17   34       1
    38   17   35       1
    39   19   36       1
    40   20   37       1
    41   21   38       1
    42   22   39       1
@<TRIPOS>SUBSTRUCTURE
     1 PNN1577     1 GROUP             4 B     PNN     0 **** PNN B1577
