@<TRIPOS>MOLECULE
4htf_SAM_2_ligand
   50    52     1     0     0
SMALL
NO_CHARGES


@<TRIPOS>ATOM
     1 N           45.7760    36.4650    18.5610 N.4          1 SAM301   1.0000
     2 CA          46.8750    35.5390    18.5270 C.3          1 SAM301   0.0000
     3 C           46.5090    34.3810    17.6360 C.2          1 SAM301   0.0000
     4 O           47.3440    33.4750    17.5270 O.co2        1 SAM301   0.0000
     5 OXT         45.3860    34.4020    17.0800 O.co2        1 SAM301  -1.0000
     6 CB          47.3200    35.0300    19.9010 C.3          1 SAM301   0.0000
     7 CG          46.3490    34.1490    20.7220 C.3          1 SAM301   0.0000
     8 SD          46.9820    33.6670    22.2110 S.3          1 SAM301   1.0000
     9 CE          46.4110    32.1630    22.6600 C.3          1 SAM301   0.0000
    10 C5'         46.3850    34.7910    23.2960 C.3          1 SAM301   0.0000
    11 C4'         47.2220    36.0750    23.3560 C.3          1 SAM301   0.0000
    12 O4'         46.4860    37.0210    24.1210 O.3          1 SAM301   0.0000
    13 C3'         48.5830    35.8870    24.0460 C.3          1 SAM301   0.0000
    14 O3'         49.6660    36.4120    23.2340 O.3          1 SAM301   0.0000
    15 C2'         48.4730    36.6280    25.3740 C.3          1 SAM301   0.0000
    16 O2'         49.7360    37.1860    25.8820 O.3          1 SAM301   0.0000
    17 C1'         47.4200    37.6660    25.0250 C.3          1 SAM301   0.0000
    18 N9          46.5390    38.1600    26.0960 N.pl3        1 SAM301   0.0000
    19 C8          45.9330    37.4460    27.0920 C.2          1 SAM301   0.0000
    20 N7          45.0960    38.2630    27.8050 N.2          1 SAM301   0.0000
    21 C5          45.0940    39.4830    27.2050 C.ar         1 SAM301   0.0000
    22 C6          44.4800    40.8060    27.4430 C.ar         1 SAM301   0.0000
    23 N6          43.6270    40.9860    28.4800 N.pl3        1 SAM301   0.0000
    24 N1          44.7920    41.8450    26.6260 N.ar         1 SAM301   0.0000
    25 C2          45.6370    41.6730    25.5740 C.ar         1 SAM301   0.0000
    26 N3          46.2750    40.5220    25.3550 N.ar         1 SAM301   0.0000
    27 C4          46.0200    39.3990    26.0710 C.ar         1 SAM301   0.0000
    28 H1          46.0097    37.2381    19.1506 H            1 SAM301   0.0000
    29 H2          45.5900    36.7957    17.6358 H            1 SAM301   0.0000
    30 HA          47.6539    36.0079    18.1104 H            1 SAM301   0.0000
    31 HB1         47.5294    35.8337    20.4580 H            1 SAM301   0.0000
    32 HB2         48.1534    34.4956    19.7602 H            1 SAM301   0.0000
    33 HG1         46.1344    33.3309    20.1885 H            1 SAM301   0.0000
    34 HG2         45.5108    34.6689    20.8867 H            1 SAM301   0.0000
    35 HE1         46.8037    31.9075    23.5435 H            1 SAM301   0.0000
    36 HE2         45.4142    32.1935    22.7345 H            1 SAM301   0.0000
    37 HE3         46.6732    31.4875    21.9708 H            1 SAM301   0.0000
    38 H5'1        46.3709    34.3778    24.2065 H            1 SAM301   0.0000
    39 H5'2        45.4530    35.0313    23.0245 H            1 SAM301   0.0000
    40 H4'         47.3612    36.4278    22.4307 H            1 SAM301   0.0000
    41 H3'         48.7374    34.9142    24.2189 H            1 SAM301   0.0000
    42 H15         49.5220    37.3891    23.0777 H            1 SAM301   0.0000
    43 H2'         48.0967    36.0054    26.0602 H            1 SAM301   0.0000
    44 H17         49.8530    38.1164    25.5345 H            1 SAM301   0.0000
    45 H1'         47.8528    38.4403    24.5633 H            1 SAM301   0.0000
    46 H19         46.0789    36.4734    27.2729 H            1 SAM301   0.0000
    47 H20         43.2137    41.8828    28.6376 H            1 SAM301   0.0000
    48 H21         43.4107    40.2220    29.0879 H            1 SAM301   0.0000
    49 H22         45.7850    42.4350    24.9435 H            1 SAM301   0.0000
    50 H23         44.9638    36.0053    18.9202 H            1 SAM301   0.0000
@<TRIPOS>BOND
     1    1    2       1
     2    2    3       1
     3    2    6       1
     4    3    4      ar
     5    3    5      ar
     6    6    7       1
     7    7    8       1
     8    8    9       1
     9    8   10       1
    10   10   11       1
    11   11   12       1
    12   11   13       1
    13   12   17       1
    14   13   14       1
    15   13   15       1
    16   15   16       1
    17   15   17       1
    18   17   18       1
    19   18   19       1
    20   18   27       1
    21   19   20       2
    22   20   21       1
    23   21   22      ar
    24   21   27      ar
    25   22   23       1
    26   22   24      ar
    27   24   25      ar
    28   25   26      ar
    29   26   27      ar
    30    1   28       1
    31    1   29       1
    32    2   30       1
    33    1   50       1
    34    6   31       1
    35    6   32       1
    36    7   33       1
    37    7   34       1
    38    9   35       1
    39    9   36       1
    40    9   37       1
    41   10   38       1
    42   10   39       1
    43   11   40       1
    44   13   41       1
    45   14   42       1
    46   15   43       1
    47   16   44       1
    48   17   45       1
    49   19   46       1
    50   23   47       1
    51   23   48       1
    52   25   49       1
@<TRIPOS>SUBSTRUCTURE
     1 SAM301      1 GROUP             4 B     SAM     0 **** SAM B 301
