@<TRIPOS>MOLECULE
2y6o_1N1_1_ligand
   58    61     1     0     0
SMALL
NO_CHARGES


@<TRIPOS>ATOM
     1 C1          28.5980    59.6340    29.1920 C.2          1 1N11892   0.0000
     2 C2          27.9200    58.4180    29.4700 C.2          1 1N11892   0.0000
     3 C3          28.6530    57.1530    29.8850 C.2          1 1N11892   0.0000
     4 N6          18.2390    63.2470    27.4410 N.4          1 1N11892   1.0000
     5 C7          32.2170    53.9380    31.5060 C.ar         1 1N11892   0.0000
     6 C8          31.7810    54.8640    32.4390 C.ar         1 1N11892   0.0000
     7 C9          31.0380    56.0050    32.0290 C.ar         1 1N11892   0.0000
     8 C10         30.5580    57.0020    33.0500 C.3          1 1N11892   0.0000
     9 C11         23.8980    60.5310    28.6150 C.ar         1 1N11892   0.0000
    10 C12         22.8620    61.4570    28.3310 C.ar         1 1N11892   0.0000
    11 C13         21.6020    60.9780    28.4370 C.ar         1 1N11892   0.0000
    12 C14         22.3800    58.8440    29.0790 C.ar         1 1N11892   0.0000
    13 C15         22.1160    57.4350    29.4840 C.3          1 1N11892   0.0000
    14 C16         20.6520    63.1770    27.7640 C.3          1 1N11892   0.0000
    15 C19         19.2720    61.5060    28.7710 C.3          1 1N11892   0.0000
    16 C20         17.4940    64.3100    28.1770 C.3          1 1N11892   0.0000
    17 C21         18.2110    65.0140    29.2570 C.2          1 1N11892   0.0000
    18 N           25.2550    60.9790    28.5130 N.pl3        1 1N11892   0.0000
    19 C           26.3400    60.0980    28.8670 C.2          1 1N11892   0.0000
    20 N1          27.6330    60.6390    28.8200 N.2          1 1N11892   0.0000
    21 S           26.3270    58.5240    29.3040 S.3          1 1N11892   0.0000
    22 N2          30.0310    57.2950    30.2710 N.am         1 1N11892   0.0000
    23 C4          30.7760    56.1520    30.6800 C.ar         1 1N11892   0.0000
    24 C5          31.2090    55.2350    29.7440 C.ar         1 1N11892   0.0000
    25 C6          31.9490    54.0960    30.1630 C.ar         1 1N11892   0.0000
    26 CL          30.8580    55.4570    28.1030 Cl           1 1N11892   0.0000
    27 O           28.0650    56.0890    29.8730 O.2          1 1N11892   0.0000
    28 N3          21.3630    59.6580    28.8170 N.ar         1 1N11892   0.0000
    29 N4          23.6380    59.2600    28.9740 N.ar         1 1N11892   0.0000
    30 N5          20.5290    61.8190    28.1720 N.pl3        1 1N11892   0.0000
    31 C17         19.5220    63.5800    26.8800 C.3          1 1N11892   0.0000
    32 C18         18.1430    61.8760    27.8750 C.3          1 1N11892   0.0000
    33 O1          17.7250    65.0940    30.3650 O.2          1 1N11892   0.0000
    34 H1          29.5870    59.7717    29.2456 H            1 1N11892   0.0000
    35 H2          32.7359    53.1399    31.8122 H            1 1N11892   0.0000
    36 H3          31.9901    54.7293    33.4076 H            1 1N11892   0.0000
    37 H4          30.0566    57.7349    32.5902 H            1 1N11892   0.0000
    38 H5          29.9551    56.5452    33.7042 H            1 1N11892   0.0000
    39 H6          31.3434    57.3880    33.5338 H            1 1N11892   0.0000
    40 H7          23.0512    62.4034    28.0692 H            1 1N11892   0.0000
    41 H8          22.9846    56.9653    29.6419 H            1 1N11892   0.0000
    42 H9          21.5743    57.4257    30.3245 H            1 1N11892   0.0000
    43 H10         21.6119    56.9682    28.7574 H            1 1N11892   0.0000
    44 H11         21.5119    63.2912    27.2664 H            1 1N11892   0.0000
    45 H12         20.6560    63.7619    28.5751 H            1 1N11892   0.0000
    46 H13         19.1854    62.0101    29.6303 H            1 1N11892   0.0000
    47 H14         19.2339    60.5239    28.9554 H            1 1N11892   0.0000
    48 H15         16.6845    63.8844    28.5815 H            1 1N11892   0.0000
    49 H16         17.2103    64.9965    27.5075 H            1 1N11892   0.0000
    50 H17         19.1029    65.4276    29.0743 H            1 1N11892   0.0000
    51 H18         25.4505    61.9067    28.1949 H            1 1N11892   0.0000
    52 H19         30.4658    58.1954    30.2523 H            1 1N11892   0.0000
    53 H20         32.2689    53.4225    29.4966 H            1 1N11892   0.0000
    54 H21         19.5630    64.5689    26.7375 H            1 1N11892   0.0000
    55 H22         19.6193    63.1123    26.0015 H            1 1N11892   0.0000
    56 H23         18.1565    61.2796    27.0724 H            1 1N11892   0.0000
    57 H24         17.2823    61.7512    28.3686 H            1 1N11892   0.0000
    58 H25         17.6923    63.2014    26.6049 H            1 1N11892   0.0000
@<TRIPOS>BOND
     1    1    2       2
     2    1   20       1
     3    2    3       1
     4    2   21       1
     5    3   22      am
     6    3   27       2
     7    4   16       1
     8    4   31       1
     9    4   32       1
    10    5    6      ar
    11    5   25      ar
    12    6    7      ar
    13    7    8       1
    14    7   23      ar
    15    9   10      ar
    16    9   18       1
    17    9   29      ar
    18   10   11      ar
    19   11   28      ar
    20   11   30       1
    21   12   13       1
    22   12   28      ar
    23   12   29      ar
    24   14   30       1
    25   14   31       1
    26   15   30       1
    27   15   32       1
    28   16   17       1
    29   17   33       2
    30   18   19       1
    31   19   20       2
    32   19   21       1
    33   22   23       1
    34   23   24      ar
    35   24   25      ar
    36   24   26       1
    37    1   34       1
    38    5   35       1
    39    6   36       1
    40    8   37       1
    41    8   38       1
    42    8   39       1
    43   10   40       1
    44   13   41       1
    45   13   42       1
    46   13   43       1
    47   14   44       1
    48   14   45       1
    49   15   46       1
    50   15   47       1
    51   16   48       1
    52   16   49       1
    53   17   50       1
    54   18   51       1
    55   22   52       1
    56   25   53       1
    57   31   54       1
    58   31   55       1
    59   32   56       1
    60   32   57       1
    61    4   58       1
@<TRIPOS>SUBSTRUCTURE
     1 1N11892     1 GROUP             4 A     1N1     0 **** 1N1 A1892
