@<TRIPOS>MOLECULE
4l39_SAL_1_ligand
   15    15     1     0     0
SMALL
NO_CHARGES


@<TRIPOS>ATOM
     1 C1'         31.8310     2.3360   -24.9430 C.2          1 SAL602   0.0000
     2 O1'         33.0890     2.3140   -25.0810 O.co2        1 SAL602   0.0000
     3 O2'         31.2560     3.4540   -24.8510 O.co2        1 SAL602  -1.0000
     4 C1          31.0750     1.0070   -24.8330 C.ar         1 SAL602   0.0000
     5 C2          29.6900     0.9050   -24.8320 C.ar         1 SAL602   0.0000
     6 C3          29.0250    -0.3200   -24.7150 C.ar         1 SAL602   0.0000
     7 C4          29.7560    -1.4810   -24.5880 C.ar         1 SAL602   0.0000
     8 C5          31.1420    -1.3950   -24.5760 C.ar         1 SAL602   0.0000
     9 C6          31.7950    -0.1690   -24.6960 C.ar         1 SAL602   0.0000
    10 O2          28.9360     2.0700   -24.9590 O.3          1 SAL602   0.0000
    11 H1          28.0256    -0.3529   -24.7235 H            1 SAL602   0.0000
    12 H2          29.2984    -2.3664   -24.5062 H            1 SAL602   0.0000
    13 H3          31.6833    -2.2303   -24.4792 H            1 SAL602   0.0000
    14 H4          32.7944    -0.1380   -24.6831 H            1 SAL602   0.0000
    15 H5          29.3937     2.9546   -25.0482 H            1 SAL602   0.0000
@<TRIPOS>BOND
     1    1    2      ar
     2    1    3      ar
     3    1    4       1
     4    4    5      ar
     5    4    9      ar
     6    5    6      ar
     7    5   10       1
     8    6    7      ar
     9    7    8      ar
    10    8    9      ar
    11   10   15       1
    12    6   11       1
    13    7   12       1
    14    8   13       1
    15    9   14       1
@<TRIPOS>SUBSTRUCTURE
     1 SAL602      1 GROUP             4 A     SAL     0 **** SAL A 602
