@<TRIPOS>MOLECULE
4c2u_ANP_2_ligand
   44    46     1     0     0
SMALL
NO_CHARGES


@<TRIPOS>ATOM
     1 C2         -52.4430    -6.4680   -10.5380 C.ar         1 ANP1665   0.0000
     2 C4         -50.1520    -6.9410   -10.7900 C.ar         1 ANP1665   0.0000
     3 C5         -50.0850    -7.2410    -9.3420 C.ar         1 ANP1665   0.0000
     4 C6         -51.3010    -7.0840    -8.5380 C.ar         1 ANP1665   0.0000
     5 C8         -48.0880    -7.5380   -10.2580 C.2          1 ANP1665   0.0000
     6 N1         -52.4270    -6.6810    -9.1800 N.ar         1 ANP1665   0.0000
     7 O1G        -38.9440    -8.4470   -12.7550 O.co2        1 ANP1665   0.0000
     8 O2'        -48.7150    -4.7400   -13.1530 O.3          1 ANP1665   0.0000
     9 O2G        -39.7510    -9.8120   -14.7620 O.co2        1 ANP1665  -1.0000
    10 O3'        -47.7600    -5.8280   -15.4520 O.3          1 ANP1665   0.0000
    11 C3'        -47.0640    -6.1580   -14.2160 C.3          1 ANP1665   0.0000
    12 C4'        -46.8280    -7.6620   -14.0910 C.3          1 ANP1665   0.0000
    13 C5'        -45.4390    -7.9170   -13.5380 C.3          1 ANP1665   0.0000
    14 O5'        -45.1700    -7.1880   -12.3290 O.3          1 ANP1665   0.0000
    15 PA         -43.5960    -6.7910   -12.0240 P.3          1 ANP1665   0.0000
    16 O3A        -43.1640    -8.3100   -11.5400 O.3          1 ANP1665   0.0000
    17 O1A        -43.9800    -5.8850   -10.7410 O.co2        1 ANP1665   0.0000
    18 O2A        -43.1240    -6.2600   -13.4040 O.co2        1 ANP1665  -1.0000
    19 O3G        -39.5500   -10.9620   -12.3500 O.co2        1 ANP1665  -1.0000
    20 O1B        -41.1500    -7.0950   -10.7420 O.co2        1 ANP1665   0.0000
    21 O2B        -41.6040    -9.6130   -10.1110 O.co2        1 ANP1665  -1.0000
    22 C2'        -47.7920    -5.7730   -12.9460 C.3          1 ANP1665   0.0000
    23 C1'        -48.5810    -7.0250   -12.6880 C.3          1 ANP1665   0.0000
    24 O4'        -47.7610    -8.1320   -13.1010 O.3          1 ANP1665   0.0000
    25 N9         -48.8960    -7.1490   -11.2640 N.pl3        1 ANP1665   0.0000
    26 N7         -48.7920    -7.5930    -9.0390 N.2          1 ANP1665   0.0000
    27 N6         -51.2350    -7.3570    -7.1550 N.pl3        1 ANP1665   0.0000
    28 N3         -51.3590    -6.5850   -11.3730 N.ar         1 ANP1665   0.0000
    29 PG         -39.8300    -9.6900   -13.2050 P.3          1 ANP1665   0.0000
    30 PB         -41.5500    -8.5280   -11.2540 P.3          1 ANP1665   0.0000
    31 N3B        -41.4320    -9.0850   -12.8980 N.3          1 ANP1665   0.0000
    32 H1         -53.3151    -6.2065   -10.9516 H            1 ANP1665   0.0000
    33 H2         -47.1182    -7.7582   -10.3628 H            1 ANP1665   0.0000
    34 H2'        -48.7000    -4.4674   -14.1150 H            1 ANP1665   0.0000
    35 H3'        -47.2127    -6.1285   -16.2332 H            1 ANP1665   0.0000
    36 H5         -46.1757    -5.6988   -14.2219 H            1 ANP1665   0.0000
    37 H4'        -46.9620    -8.1257   -14.9668 H            1 ANP1665   0.0000
    38 H5'1       -44.7674    -7.6474   -14.2281 H            1 ANP1665   0.0000
    39 H5'2       -45.3470    -8.8943   -13.3473 H            1 ANP1665   0.0000
    40 H9         -47.1599    -5.5672   -12.1989 H            1 ANP1665   0.0000
    41 H1'        -49.4259    -7.0102   -13.2227 H            1 ANP1665   0.0000
    42 H11        -52.0513    -7.2570    -6.5861 H            1 ANP1665   0.0000
    43 H12        -50.3719    -7.6504    -6.7439 H            1 ANP1665   0.0000
    44 H3B        -41.6245    -8.3259   -13.5199 H            1 ANP1665   0.0000
@<TRIPOS>BOND
     1    1    6      ar
     2    1   28      ar
     3    2    3      ar
     4    2   25       1
     5    2   28      ar
     6    3    4      ar
     7    3   26       1
     8    4    6      ar
     9    4   27       1
    10    5   25       1
    11    5   26       2
    12    7   29      ar
    13    8   22       1
    14    9   29      ar
    15   10   11       1
    16   11   12       1
    17   11   22       1
    18   12   13       1
    19   12   24       1
    20   13   14       1
    21   14   15       1
    22   15   16       1
    23   15   17      ar
    24   15   18      ar
    25   16   30       1
    26   19   29      ar
    27   20   30      ar
    28   21   30      ar
    29   22   23       1
    30   23   24       1
    31   23   25       1
    32   29   31       1
    33   30   31       1
    34    1   32       1
    35    5   33       1
    36   31   44       1
    37    8   34       1
    38   27   43       1
    39   10   35       1
    40   11   36       1
    41   12   37       1
    42   13   38       1
    43   13   39       1
    44   27   42       1
    45   23   41       1
    46   22   40       1
@<TRIPOS>SUBSTRUCTURE
     1 ANP1665     1 GROUP             4 D     ANP     0 **** ANP D1665
