@<TRIPOS>MOLECULE
1qap_NTM_1_ligand
   15    15     1     0     0
SMALL
NO_CHARGES


@<TRIPOS>ATOM
     1 N1          14.3840    28.9050    40.4830 N.ar         1 NTM300   0.0000
     2 C2          15.3780    29.7890    40.6780 C.ar         1 NTM300   0.0000
     3 C3          16.1630    30.1880    39.5530 C.ar         1 NTM300   0.0000
     4 C4          15.8960    29.5540    38.3250 C.ar         1 NTM300   0.0000
     5 C5          15.1290    28.3950    38.3110 C.ar         1 NTM300   0.0000
     6 C6          14.2810    28.1740    39.3870 C.ar         1 NTM300   0.0000
     7 C7          15.5520    30.2300    42.1190 C.2          1 NTM300   0.0000
     8 O1          14.5520    30.4240    42.8560 O.co2        1 NTM300   0.0000
     9 O2          16.6940    30.3910    42.5870 O.co2        1 NTM300  -1.0000
    10 C8          17.2690    31.2220    39.4870 C.2          1 NTM300   0.0000
    11 O3          17.1150    32.3390    40.0420 O.co2        1 NTM300   0.0000
    12 O4          18.3480    30.9650    38.8830 O.co2        1 NTM300  -1.0000
    13 H1          16.2543    29.9333    37.4719 H            1 NTM300   0.0000
    14 H2          15.1861    27.7445    37.5536 H            1 NTM300   0.0000
    15 H3          13.5868    27.4562    39.3326 H            1 NTM300   0.0000
@<TRIPOS>BOND
     1    1    2      ar
     2    1    6      ar
     3    2    3      ar
     4    2    7       1
     5    3    4      ar
     6    3   10       1
     7    4    5      ar
     8    5    6      ar
     9    7    8      ar
    10    7    9      ar
    11   10   11      ar
    12   10   12      ar
    13    4   13       1
    14    5   14       1
    15    6   15       1
@<TRIPOS>SUBSTRUCTURE
     1 NTM300      1 GROUP             4 A     NTM     0 **** NTM A 300
