@<TRIPOS>MOLECULE
3hz6_ADP_1_ligand
   39    41     1     0     0
SMALL
NO_CHARGES


@<TRIPOS>ATOM
     1 PB          19.8590    14.0290     1.3440 P.3          1 ADP510   0.0000
     2 O1B         21.0390    14.8140     0.7640 O.co2        1 ADP510   0.0000
     3 O2B         19.5750    12.7150     0.6300 O.co2        1 ADP510  -1.0000
     4 O3B         19.9140    13.8920     2.8630 O.co2        1 ADP510  -1.0000
     5 PA          17.9360    15.7100    -0.0560 P.3          1 ADP510   0.0000
     6 O1A         17.8970    17.1860     0.2320 O.co2        1 ADP510   0.0000
     7 O2A         18.6420    15.0940    -1.2430 O.co2        1 ADP510  -1.0000
     8 O3A         18.5600    14.9990     1.2510 O.3          1 ADP510   0.0000
     9 O5'         16.4490    15.0880     0.0270 O.3          1 ADP510   0.0000
    10 C5'         16.2140    13.7040    -0.1490 C.3          1 ADP510   0.0000
    11 C4'         14.7350    13.5530     0.1070 C.3          1 ADP510   0.0000
    12 O4'         14.0030    14.2010    -0.9190 O.3          1 ADP510   0.0000
    13 C3'         14.3900    12.0950    -0.0130 C.3          1 ADP510   0.0000
    14 O3'         14.2480    11.5630     1.2850 O.3          1 ADP510   0.0000
    15 C2'         13.0860    12.0700    -0.7510 C.3          1 ADP510   0.0000
    16 O2'         12.0860    11.5760     0.1280 O.3          1 ADP510   0.0000
    17 C1'         12.7530    13.5130    -1.0830 C.3          1 ADP510   0.0000
    18 N9          12.3500    13.5860    -2.4900 N.pl3        1 ADP510   0.0000
    19 C8          13.1210    13.3050    -3.5770 C.2          1 ADP510   0.0000
    20 N7          12.4200    13.4830    -4.7340 N.2          1 ADP510   0.0000
    21 C5          11.1740    13.8740    -4.3540 C.ar         1 ADP510   0.0000
    22 C6           9.9150    14.2570    -5.0230 C.ar         1 ADP510   0.0000
    23 N6           9.8220    14.2440    -6.3630 N.pl3        1 ADP510   0.0000
    24 N1           8.8640    14.6050    -4.2370 N.ar         1 ADP510   0.0000
    25 C2           8.9430    14.6270    -2.8910 C.ar         1 ADP510   0.0000
    26 N3          10.0550    14.2980    -2.2120 N.ar         1 ADP510   0.0000
    27 C4          11.1540    13.9350    -2.8940 C.ar         1 ADP510   0.0000
    28 H5'1        16.7453    13.1666     0.5059 H            1 ADP510   0.0000
    29 H5'2        16.4452    13.4191    -1.0793 H            1 ADP510   0.0000
    30 H4'         14.4866    13.9095     1.0077 H            1 ADP510   0.0000
    31 H3'         15.0962    11.6037    -0.5229 H            1 ADP510   0.0000
    32 H5          15.1316    11.2193     1.6029 H            1 ADP510   0.0000
    33 H2'         13.1485    11.5126    -1.5789 H            1 ADP510   0.0000
    34 H7          12.4959    11.3682     1.0161 H            1 ADP510   0.0000
    35 H1'         12.0470    13.8787    -0.4765 H            1 ADP510   0.0000
    36 H9          14.0747    13.0076    -3.5330 H            1 ADP510   0.0000
    37 H10          8.9650    14.5051    -6.8073 H            1 ADP510   0.0000
    38 H11         10.6098    13.9733    -6.9163 H            1 ADP510   0.0000
    39 H12          8.1335    14.9019    -2.3721 H            1 ADP510   0.0000
@<TRIPOS>BOND
     1    1    2      ar
     2    1    3      ar
     3    1    4      ar
     4    1    8       1
     5    5    6      ar
     6    5    7      ar
     7    5    8       1
     8    5    9       1
     9    9   10       1
    10   10   11       1
    11   11   12       1
    12   11   13       1
    13   12   17       1
    14   13   14       1
    15   13   15       1
    16   15   16       1
    17   15   17       1
    18   17   18       1
    19   18   19       1
    20   18   27       1
    21   19   20       2
    22   20   21       1
    23   21   22      ar
    24   21   27      ar
    25   22   23       1
    26   22   24      ar
    27   24   25      ar
    28   25   26      ar
    29   26   27      ar
    30   25   39       1
    31   23   38       1
    32   23   37       1
    33   10   28       1
    34   10   29       1
    35   11   30       1
    36   13   31       1
    37   14   32       1
    38   15   33       1
    39   16   34       1
    40   17   35       1
    41   19   36       1
@<TRIPOS>SUBSTRUCTURE
     1 ADP510      1 GROUP             4 A     ADP     0 **** ADP A 510
