@<TRIPOS>MOLECULE
5awm_ANP_1_ligand
   44    46     1     0     0
SMALL
NO_CHARGES


@<TRIPOS>ATOM
     1 PG         -12.2000    -5.8030    13.6650 P.3          1 ANP401   0.0000
     2 O1G        -12.9800    -6.5860    12.6340 O.co2        1 ANP401   0.0000
     3 O2G        -11.6210    -4.4430    13.2360 O.co2        1 ANP401  -1.0000
     4 O3G        -11.3240    -6.6030    14.5470 O.co2        1 ANP401  -1.0000
     5 PB         -14.1040    -4.0180    15.0920 P.3          1 ANP401   0.0000
     6 O1B        -14.0410    -3.0640    13.9240 O.co2        1 ANP401   0.0000
     7 O2B        -15.4670    -4.2070    15.7250 O.co2        1 ANP401  -1.0000
     8 N3B        -13.4250    -5.5130    14.8260 N.3          1 ANP401   0.0000
     9 PA         -11.9560    -2.4100    16.2450 P.3          1 ANP401   0.0000
    10 O1A        -11.5620    -2.0290    14.8550 O.co2        1 ANP401   0.0000
    11 O2A        -10.7840    -2.9970    17.0860 O.co2        1 ANP401  -1.0000
    12 O3A        -13.2340    -3.3710    16.2710 O.3          1 ANP401   0.0000
    13 O5'        -12.4190    -1.0570    16.8950 O.3          1 ANP401   0.0000
    14 C5'        -13.6350    -0.3640    16.5460 C.3          1 ANP401   0.0000
    15 C4'        -13.4180     1.1210    16.6680 C.3          1 ANP401   0.0000
    16 O4'        -13.2420     1.4090    18.0890 O.3          1 ANP401   0.0000
    17 C3'        -12.1390     1.6840    15.9800 C.3          1 ANP401   0.0000
    18 O3'        -12.4180     1.9600    14.5910 O.3          1 ANP401   0.0000
    19 C2'        -11.8530     2.8530    16.8880 C.3          1 ANP401   0.0000
    20 O2'        -12.6960     4.0010    16.5250 O.3          1 ANP401   0.0000
    21 C1'        -12.2250     2.3620    18.3150 C.3          1 ANP401   0.0000
    22 N9         -11.1200     1.7740    19.0320 N.pl3        1 ANP401   0.0000
    23 C8         -10.7180     0.5140    19.1160 C.2          1 ANP401   0.0000
    24 N7          -9.6360     0.4120    19.8690 N.2          1 ANP401   0.0000
    25 C5          -9.3700     1.6590    20.3100 C.ar         1 ANP401   0.0000
    26 C6          -8.3120     2.2410    21.1530 C.ar         1 ANP401   0.0000
    27 N6          -7.3630     1.4940    21.6910 N.pl3        1 ANP401   0.0000
    28 N1          -8.3380     3.5570    21.3340 N.ar         1 ANP401   0.0000
    29 C2          -9.3320     4.3280    20.7850 C.ar         1 ANP401   0.0000
    30 N3         -10.3180     3.8790    19.9700 N.ar         1 ANP401   0.0000
    31 C4         -10.3210     2.5470    19.7360 C.ar         1 ANP401   0.0000
    32 H3B        -13.0420    -5.7992    15.7043 H            1 ANP401   0.0000
    33 H5'1       -14.3686    -0.6457    17.1644 H            1 ANP401   0.0000
    34 H5'2       -13.8880    -0.5878    15.6048 H            1 ANP401   0.0000
    35 H4'        -14.2228     1.6058    16.3257 H            1 ANP401   0.0000
    36 H3'        -11.3982     1.0157    16.0482 H            1 ANP401   0.0000
    37 H6         -11.8108     1.4136    14.0141 H            1 ANP401   0.0000
    38 H2'        -10.8854     3.1016    16.8445 H            1 ANP401   0.0000
    39 H8         -12.4956     4.7678    17.1349 H            1 ANP401   0.0000
    40 H1'        -12.5960     3.1256    18.8435 H            1 ANP401   0.0000
    41 H10        -11.1724    -0.2568    18.6694 H            1 ANP401   0.0000
    42 H11         -6.6567     1.9158    22.2595 H            1 ANP401   0.0000
    43 H12         -7.3515     0.5072    21.5294 H            1 ANP401   0.0000
    44 H13         -9.3286     5.3035    21.0048 H            1 ANP401   0.0000
@<TRIPOS>BOND
     1    1    2      ar
     2    1    3      ar
     3    1    4      ar
     4    1    8       1
     5    5    6      ar
     6    5    7      ar
     7    5    8       1
     8    5   12       1
     9    9   10      ar
    10    9   11      ar
    11    9   12       1
    12    9   13       1
    13   13   14       1
    14   14   15       1
    15   15   16       1
    16   15   17       1
    17   16   21       1
    18   17   18       1
    19   17   19       1
    20   19   20       1
    21   19   21       1
    22   21   22       1
    23   22   23       1
    24   22   31       1
    25   23   24       2
    26   24   25       1
    27   25   26      ar
    28   25   31      ar
    29   26   27       1
    30   26   28      ar
    31   28   29      ar
    32   29   30      ar
    33   30   31      ar
    34   29   44       1
    35   27   43       1
    36   27   42       1
    37    8   32       1
    38   23   41       1
    39   14   33       1
    40   14   34       1
    41   15   35       1
    42   17   36       1
    43   18   37       1
    44   19   38       1
    45   20   39       1
    46   21   40       1
@<TRIPOS>SUBSTRUCTURE
     1 ANP401      1 GROUP             4 A     ANP     0 **** ANP A 401
