@<TRIPOS>MOLECULE
1owm_FAD_1_ligand
   84    89     1     0     0
SMALL
NO_CHARGES


@<TRIPOS>ATOM
     1 PA          44.0730    27.0590    51.8750 P.3          1 FAD485   0.0000
     2 O1A         42.7030    27.5800    52.0480 O.co2        1 FAD485   0.0000
     3 O2A         45.0640    27.8920    51.2260 O.co2        1 FAD485  -1.0000
     4 O5B         44.0650    25.6940    51.0340 O.3          1 FAD485   0.0000
     5 C5B         42.9170    24.8070    51.0530 C.3          1 FAD485   0.0000
     6 C4B         43.3130    23.3490    51.3370 C.3          1 FAD485   0.0000
     7 O4B         44.3100    22.8810    50.4100 O.3          1 FAD485   0.0000
     8 C3B         43.9650    23.2170    52.7180 C.3          1 FAD485   0.0000
     9 O3B         43.0280    23.2240    53.8230 O.3          1 FAD485   0.0000
    10 C2B         44.8030    21.9420    52.5820 C.3          1 FAD485   0.0000
    11 O2B         44.0160    20.7900    52.7920 O.3          1 FAD485   0.0000
    12 C1B         45.2380    22.0080    51.1090 C.3          1 FAD485   0.0000
    13 N9A         46.6120    22.5470    50.9680 N.pl3        1 FAD485   0.0000
    14 C8A         47.0330    23.8540    50.8100 C.2          1 FAD485   0.0000
    15 N7A         48.3250    23.9690    50.7330 N.2          1 FAD485   0.0000
    16 C5A         48.7400    22.7010    50.4100 C.ar         1 FAD485   0.0000
    17 C6A         50.0370    22.1490    50.2320 C.ar         1 FAD485   0.0000
    18 N6A         51.1040    22.9360    50.1440 N.pl3        1 FAD485   0.0000
    19 N1A         50.2230    20.7900    50.4940 N.ar         1 FAD485   0.0000
    20 C2A         49.1640    20.0030    50.8220 C.ar         1 FAD485   0.0000
    21 N3A         47.8740    20.4010    50.9240 N.ar         1 FAD485   0.0000
    22 C4A         47.7430    21.7870    50.7570 C.ar         1 FAD485   0.0000
    23 N1          48.8900    20.9640    55.5390 N.2          1 FAD485   0.0000
    24 C2          48.0430    20.2210    56.3500 C.2          1 FAD485   0.0000
    25 O2          46.9590    19.8860    55.9580 O.2          1 FAD485   0.0000
    26 N3          48.6920    19.5610    57.4150 N.pl3        1 FAD485   0.0000
    27 C4          50.0470    19.6580    57.7590 C.2          1 FAD485   0.0000
    28 O4          50.4850    18.9130    58.6340 O.2          1 FAD485   0.0000
    29 C4X         50.8180    20.5020    56.8540 C.2          1 FAD485   0.0000
    30 N5          52.1160    20.8040    57.2940 N.2          1 FAD485   0.0000
    31 C5X         52.9590    21.5000    56.4320 C.ar         1 FAD485   0.0000
    32 C6          54.3120    21.5780    56.7670 C.ar         1 FAD485   0.0000
    33 C7          55.1370    22.5000    56.1000 C.ar         1 FAD485   0.0000
    34 C7M         56.6510    22.5120    56.3670 C.3          1 FAD485   0.0000
    35 C8          54.6120    23.2470    54.9610 C.ar         1 FAD485   0.0000
    36 C8M         55.5500    24.1210    54.1130 C.3          1 FAD485   0.0000
    37 C9          53.2980    23.0630    54.5510 C.ar         1 FAD485   0.0000
    38 C9A         52.4370    22.1850    55.2720 C.ar         1 FAD485   0.0000
    39 N10         51.0160    22.1070    54.9680 N.pl3        1 FAD485   0.0000
    40 C10         50.2460    21.1880    55.7230 C.2          1 FAD485   0.0000
    41 C1'         50.4400    22.6640    53.8350 C.3          1 FAD485   0.0000
    42 C2'         49.7530    24.0050    54.2030 C.3          1 FAD485   0.0000
    43 O2'         50.6400    24.9130    54.8350 O.3          1 FAD485   0.0000
    44 C3'         48.2850    24.0110    54.6800 C.3          1 FAD485   0.0000
    45 O3'         47.4040    23.0330    54.1320 O.3          1 FAD485   0.0000
    46 C4'         47.6510    25.3820    54.9930 C.3          1 FAD485   0.0000
    47 O4'         48.4180    26.1930    55.8940 O.3          1 FAD485   0.0000
    48 C5'         46.2110    25.2560    55.4420 C.3          1 FAD485   0.0000
    49 O5'         45.5630    26.5300    55.5910 O.3          1 FAD485   0.0000
    50 P           44.1940    26.7100    54.8120 P.3          1 FAD485   0.0000
    51 O1P         43.2650    25.5810    55.1280 O.co2        1 FAD485   0.0000
    52 O2P         43.7050    28.0710    55.0830 O.co2        1 FAD485  -1.0000
    53 O3P         44.7170    26.5570    53.2880 O.3          1 FAD485   0.0000
    54 H5B1        42.4626    24.8496    50.1632 H            1 FAD485   0.0000
    55 H5B2        42.2852    25.1135    51.7650 H            1 FAD485   0.0000
    56 H4B         42.5040    22.7632    51.2877 H            1 FAD485   0.0000
    57 H3B         44.5913    23.9871    52.8390 H            1 FAD485   0.0000
    58 H5          43.2329    23.9927    54.4289 H            1 FAD485   0.0000
    59 H2B         45.5928    21.9592    53.1952 H            1 FAD485   0.0000
    60 H7          44.5870    19.9745    52.6975 H            1 FAD485   0.0000
    61 H1B         45.1978    21.0922    50.7094 H            1 FAD485   0.0000
    62 H8A         46.4068    24.6321    50.7600 H            1 FAD485   0.0000
    63 H6A1        52.0117    22.5355    50.0188 H            1 FAD485   0.0000
    64 H6A2        50.9993    23.9288    50.2030 H            1 FAD485   0.0000
    65 H2A         49.3561    19.0389    51.0053 H            1 FAD485   0.0000
    66 H13         48.1268    18.9624    57.9827 H            1 FAD485   0.0000
    67 H14         54.6911    20.9829    57.4756 H            1 FAD485   0.0000
    68 H7M1        57.0815    23.2248    55.8133 H            1 FAD485   0.0000
    69 H7M2        56.8172    22.6965    57.3357 H            1 FAD485   0.0000
    70 H7M3        57.0391    21.6225    56.1257 H            1 FAD485   0.0000
    71 H8M1        55.0275    24.5572    53.3804 H            1 FAD485   0.0000
    72 H8M2        55.9641    24.8240    54.6913 H            1 FAD485   0.0000
    73 H8M3        56.2687    23.5504    53.7156 H            1 FAD485   0.0000
    74 H21         52.9545    23.5483    53.7469 H            1 FAD485   0.0000
    75 H1'1        49.7592    22.0327    53.4637 H            1 FAD485   0.0000
    76 H1'2        51.1488    22.8308    53.1496 H            1 FAD485   0.0000
    77 H2'         49.6614    24.4257    53.3004 H            1 FAD485   0.0000
    78 H25         51.4027    25.1159    54.2209 H            1 FAD485   0.0000
    79 H3'         48.3971    23.6509    55.6062 H            1 FAD485   0.0000
    80 H27         47.7456    22.1183    54.3480 H            1 FAD485   0.0000
    81 H4'         47.6272    25.8796    54.1259 H            1 FAD485   0.0000
    82 H29         49.3898    25.9829    55.7866 H            1 FAD485   0.0000
    83 H5'1        46.1907    24.7819    56.3222 H            1 FAD485   0.0000
    84 H5'2        45.7099    24.7197    54.7628 H            1 FAD485   0.0000
@<TRIPOS>BOND
     1    1    2      ar
     2    1    3      ar
     3    1    4       1
     4    1   53       1
     5    4    5       1
     6    5    6       1
     7    6    7       1
     8    6    8       1
     9    7   12       1
    10    8    9       1
    11    8   10       1
    12   10   11       1
    13   10   12       1
    14   12   13       1
    15   13   14       1
    16   13   22       1
    17   14   15       2
    18   15   16       1
    19   16   17      ar
    20   16   22      ar
    21   17   18       1
    22   17   19      ar
    23   19   20      ar
    24   20   21      ar
    25   21   22      ar
    26   23   24       1
    27   23   40       2
    28   24   25       2
    29   24   26       1
    30   26   27       1
    31   27   28       2
    32   27   29       1
    33   29   30       2
    34   29   40       1
    35   30   31       1
    36   31   32      ar
    37   31   38      ar
    38   32   33      ar
    39   33   34       1
    40   33   35      ar
    41   35   36       1
    42   35   37      ar
    43   37   38      ar
    44   38   39       1
    45   39   40       1
    46   39   41       1
    47   41   42       1
    48   42   43       1
    49   42   44       1
    50   44   45       1
    51   44   46       1
    52   46   47       1
    53   46   48       1
    54   48   49       1
    55   49   50       1
    56   50   51      ar
    57   50   52      ar
    58   50   53       1
    59   48   84       1
    60    5   54       1
    61    5   55       1
    62    6   56       1
    63    8   57       1
    64    9   58       1
    65   10   59       1
    66   11   60       1
    67   12   61       1
    68   14   62       1
    69   18   63       1
    70   18   64       1
    71   20   65       1
    72   26   66       1
    73   32   67       1
    74   34   68       1
    75   34   69       1
    76   34   70       1
    77   36   71       1
    78   36   72       1
    79   36   73       1
    80   37   74       1
    81   41   75       1
    82   41   76       1
    83   42   77       1
    84   43   78       1
    85   44   79       1
    86   45   80       1
    87   46   81       1
    88   47   82       1
    89   48   83       1
@<TRIPOS>SUBSTRUCTURE
     1 FAD485      1 GROUP             4 A     FAD     0 **** FAD A 485
