@<TRIPOS>MOLECULE
./coach420/2qzz/ligand.pdb
 64 69 0 0 0
SMALL
GASTEIGER

@<TRIPOS>ATOM
      1  PA         5.4810   -6.2330   22.2810 P.3   401  NAP401      0.2189
      2  O1A        5.9360   -7.0910   21.1620 O.2   401  NAP401     -0.5170
      3  O2A        5.2600   -6.8110   23.6240 O.3   401  NAP401     -0.4371
      4  O5B        4.1820   -5.4810   21.7060 O.3   401  NAP401     -0.3112
      5  C5B        3.5190   -4.4720   22.4910 C.3   401  NAP401      0.1813
      6  C4B        2.0560   -4.5300   22.1250 C.3   401  NAP401      0.1800
      7  O4B        1.6500   -4.1820   20.6970 O.3   401  NAP401     -0.3307
      8  C3B        1.3450   -5.8690   22.1430 C.3   401  NAP401      0.2134
      9  O3B        1.1800   -6.3290   23.4680 O.3   401  NAP401     -0.2176
     10  C2B        0.0110   -5.6570   21.4120 C.3   401  NAP401      0.2081
     11  O2B       -1.0060   -5.2640   22.3220 O.3   401  NAP401     -0.2654
     12  C1B        0.3110   -4.5450   20.4260 C.3   401  NAP401      0.2382
     13  N9A        0.2500   -4.9690   19.0200 N.ar  401  NAP401     -0.2694
     14  C8A        0.8530   -6.1000   18.4700 C.ar  401  NAP401      0.1816
     15  N7A        0.6310   -6.2380   17.1820 N.ar  401  NAP401     -0.2193
     16  C5A       -0.1420   -5.1610   16.8700 C.ar  401  NAP401      0.1518
     17  C6A       -0.7200   -4.7330   15.6490 C.ar  401  NAP401      0.1919
     18  N6A       -0.5480   -5.4210   14.5120 N.pl3 401  NAP401     -0.1054
     19  N1A       -1.4600   -3.5790   15.6720 N.ar  401  NAP401     -0.2040
     20  C2A       -1.6310   -2.8840   16.8270 C.ar  401  NAP401      0.2016
     21  N3A       -1.1260   -3.2070   18.0470 N.ar  401  NAP401     -0.2048
     22  C4A       -0.3920   -4.3630   17.9930 C.ar  401  NAP401      0.1692
     23  O3         6.5020   -4.9570   22.3390 O.3   401  NAP401     -0.2703
     24  PN         7.8770   -4.8970   23.1700 P.3   401  NAP401      0.2189
     25  O1N        8.6900   -6.1220   22.9690 O.2   401  NAP401     -0.5170
     26  O2N        7.5060   -4.5600   24.5640 O.3   401  NAP401     -0.4371
     27  O5D        8.6300   -3.6230   22.5700 O.3   401  NAP401     -0.3112
     28  C5D        8.1830   -2.2820   22.8630 C.3   401  NAP401      0.1813
     29  C4D        9.3190   -1.2980   22.6800 C.3   401  NAP401      0.1799
     30  O4D       10.4400   -1.7570   23.4840 O.3   401  NAP401     -0.3327
     31  C3D        9.7800   -1.1380   21.2110 C.3   401  NAP401      0.2158
     32  O3D       10.0620    0.2100   20.9110 O.3   401  NAP401     -0.2175
     33  C2D       10.9730   -2.0590   21.2030 C.3   401  NAP401      0.2309
     34  O2D       11.8620   -1.7020   20.1640 O.3   401  NAP401     -0.2158
     35  C1D       11.5520   -1.9180   22.5850 C.3   401  NAP401      0.2263
     36  N1N       12.4090   -3.0670   22.9590 N.pl3 401  NAP401     -0.2787
     37  C2N       13.6240   -2.7610   23.5620 C.3   401  NAP401      0.1244
     38  C3N       14.3580   -3.7550   24.2090 C.2   401  NAP401      0.0544
     39  C7N       15.6300   -3.4270   24.9510 C.2   401  NAP401      0.2818
     40  O7N       16.3660   -4.3370   25.3350 O.2   401  NAP401     -0.2670
     41  N7N       15.8950   -2.1320   25.1730 N.am  401  NAP401     -0.0839
     42  C4N       13.8810   -5.1050   24.1860 C.2   401  NAP401      0.0033
     43  C5N       12.6450   -5.4010   23.5710 C.2   401  NAP401      0.0157
     44  C6N       11.9000   -4.3800   22.9760 C.2   401  NAP401      0.0633
     45  P2B       -2.5340   -5.7990   22.2740 P.3   401  NAP401      0.5327
     46  O1X       -2.4930   -7.2970   22.0580 O.3   401  NAP401     -0.1145
     47  O2X       -3.0450   -5.3310   23.6080 O.3   401  NAP401     -0.1145
     48  O3X       -3.2070   -5.0670   21.1160 O.2   401  NAP401     -0.2224
     49  C9        16.8430   -7.7500   19.7550 C.3   601  EMF601      0.1424
     50  O10       17.2970   -8.5860   20.8650 O.3   601  EMF601     -0.3538
     51  C11       18.0960   -9.7570   20.6510 C.3   601  EMF601      0.1422
     52  C12       19.4880   -9.3550   20.2080 C.3   601  EMF601      0.0346
     53  C8        16.1430   -6.4510   20.0180 C.3   601  EMF601      0.0340
     54  C14       15.0240   -6.4870   21.0580 C.3   601  EMF601      0.0073
     55  C7        16.3750   -5.8330   21.4000 C.3   601  EMF601      0.0249
     56  C1        16.4850   -4.3180   21.3060 C.ar  601  EMF601     -0.0192
     57  C2        17.5110   -3.6430   22.0470 C.ar  601  EMF601      0.0360
     58  C3        17.6430   -2.2140   21.9760 C.ar  601  EMF601      0.1771
     59  O3        18.6110   -1.5120   22.6690 O.3   601  EMF601     -0.4682
     60  C13       19.0370   -1.8700   23.9900 C.3   601  EMF601      0.2526
     61  C6        15.5830   -3.5550   20.4940 C.ar  601  EMF601     -0.0008
     62  C5        15.6870   -2.1490   20.3970 C.ar  601  EMF601      0.0449
     63  C4        16.6870   -1.4490   21.1140 C.ar  601  EMF601      0.2293
     64  O4        16.7950   -0.0900   21.0250 O.3   601  EMF601     -0.2833
@<TRIPOS>BOND
     1     1     2    2
     2     1     4    1
     3     1    23    1
     4     1     3    1
     5     4     5    1
     6     5     6    1
     7     6     7    1
     8     6     8    1
     9     7    12    1
    10     8    10    1
    11     8     9    1
    12    10    12    1
    13    10    11    1
    14    11    45    1
    15    12    13    1
    16    13    22   ar
    17    13    14   ar
    18    14    15   ar
    19    15    16   ar
    20    16    17   ar
    21    16    22   ar
    22    17    18    1
    23    17    19   ar
    24    19    20   ar
    25    20    21   ar
    26    21    22   ar
    27    23    24    1
    28    24    27    1
    29    24    25    2
    30    24    26    1
    31    27    28    1
    32    28    29    1
    33    29    31    1
    34    29    30    1
    35    30    35    1
    36    31    32    1
    37    31    33    1
    38    33    34    1
    39    33    35    1
    40    35    36    1
    41    36    44    1
    42    36    37    1
    43    37    38    1
    44    38    42    2
    45    38    39    1
    46    39    41   am
    47    39    40    2
    48    42    43    1
    49    43    44    2
    50    45    48    2
    51    45    46    1
    52    45    47    1
    53    49    53    1
    54    49    50    1
    55    50    51    1
    56    51    52    1
    57    53    54    1
    58    53    55    1
    59    54    55    1
    60    55    56    1
    61    56    61   ar
    62    56    57   ar
    63    57    58   ar
    64    58    63   ar
    65    58    59    1
    66    59    60    1
    67    61    62   ar
    68    62    63   ar
    69    63    64    1
