@<TRIPOS>MOLECULE
./coach420/2za1/ligand.pdb
 24 25 0 0 0
SMALL
GASTEIGER

@<TRIPOS>ATOM
      1  P         19.9230   34.8860   27.6320 P.3   500  OMP500      0.5327
      2  O1P       19.3160   33.6520   28.2550 O.3   500  OMP500     -0.1145
      3  O2P       18.9660   36.1620   27.9370 O.2   500  OMP500     -0.2224
      4  O3P       21.4300   35.1370   28.2170 O.3   500  OMP500     -0.1145
      5  O5'       20.0240   34.7350   26.0350 O.3   500  OMP500     -0.2675
      6  C5'       20.8940   33.6620   25.7570 C.3   500  OMP500      0.1859
      7  C4'       21.2990   33.7010   24.3000 C.3   500  OMP500      0.1803
      8  O4'       22.0810   34.8960   23.9850 O.3   500  OMP500     -0.3306
      9  C3'       22.2200   32.5200   24.0250 C.3   500  OMP500      0.2161
     10  O3'       21.4320   31.4220   23.5610 O.3   500  OMP500     -0.2175
     11  C2'       23.2540   33.0470   23.0420 C.3   500  OMP500      0.2338
     12  O2'       23.2090   32.2760   21.8430 O.3   500  OMP500     -0.2155
     13  C1'       22.8400   34.5360   22.8070 C.3   500  OMP500      0.2423
     14  N1        24.0910   35.4230   22.5370 N.ar  500  OMP500     -0.2486
     15  C2        24.7430   36.0280   23.5820 C.ar  500  OMP500      0.3547
     16  O2        24.3300   35.8760   24.7320 O.2   500  OMP500     -0.2443
     17  N3        25.8390   36.7870   23.3760 N.ar  500  OMP500     -0.1530
     18  C4        26.3600   36.9980   22.1390 C.ar  500  OMP500      0.2848
     19  O4        27.3590   37.6740   21.9840 O.2   500  OMP500     -0.2650
     20  C5        25.7070   36.3930   20.9800 C.ar  500  OMP500      0.0867
     21  C6        24.5910   35.6250   21.1920 C.ar  500  OMP500      0.1507
     22  C7        23.9550   35.0290   19.9610 C.2   500  OMP500      0.4036
     23  O71       22.9530   34.3440   20.0440 O.co2 500  OMP500     -0.2389
     24  O72       24.4940   35.2550   18.7270 O.co2 500  OMP500     -0.2389
@<TRIPOS>BOND
     1     1     5    1
     2     1     3    2
     3     1     4    1
     4     1     2    1
     5     5     6    1
     6     6     7    1
     7     7     8    1
     8     7     9    1
     9     8    13    1
    10     9    11    1
    11     9    10    1
    12    11    12    1
    13    11    13    1
    14    13    14    1
    15    14    21   ar
    16    14    15   ar
    17    15    17   ar
    18    15    16    2
    19    17    18   ar
    20    18    20   ar
    21    18    19    2
    22    20    21   ar
    23    21    22    1
    24    22    24   ar
    25    22    23   ar
