@<TRIPOS>MOLECULE
./coach420/1dcp/ligand.pdb
 17 18 0 0 0
SMALL
GASTEIGER

@<TRIPOS>ATOM
      1  N1        51.1080   33.6360   39.9810 N.2   105  HBI105     -0.3544
      2  N2        49.6580   32.7760   41.5470 N.pl3 105  HBI105     -0.0763
      3  C2        50.9780   33.1210   41.1930 C.2   105  HBI105      0.3021
      4  N3        51.9580   32.8880   42.0710 N.am  105  HBI105     -0.1311
      5  C4        53.1970   33.2130   41.7300 C.2   105  HBI105      0.2794
      6  O4        54.2210   32.9860   42.6090 O.2   105  HBI105     -0.2703
      7  C4A       53.4720   33.7810   40.4670 C.3   105  HBI105      0.2480
      8  C8A       52.3290   33.9850   39.5940 C.2   105  HBI105      0.2108
      9  N8        52.4840   34.5800   38.2660 N.pl3 105  HBI105     -0.2051
     10  C7        53.8680   35.1600   37.9820 C.3   105  HBI105      0.1577
     11  C6        55.0490   34.7510   38.9400 C.2   105  HBI105      0.0869
     12  N5        54.7970   34.1660   40.0790 N.2   105  HBI105     -0.2589
     13  C9        56.5020   35.1070   38.5920 C.3   105  HBI105      0.2189
     14  O9        56.9930   36.0380   39.6080 O.3   105  HBI105     -0.2142
     15  C10       57.4700   33.8690   38.4320 C.3   105  HBI105      0.1877
     16  O10       56.9770   32.8360   37.4990 O.3   105  HBI105     -0.2200
     17  C11       58.8890   34.3250   37.9850 C.3   105  HBI105      0.0387
@<TRIPOS>BOND
     1     1     8    2
     2     1     3    2
     3     2     3    1
     4     3     4    1
     5     4     5   am
     6     5     7    1
     7     5     6    2
     8     7     8    1
     9     7    12    1
    10     8     9    1
    11     9    10    1
    12    10    11    1
    13    11    13    1
    14    11    12    2
    15    13    15    1
    16    13    14    1
    17    15    16    1
    18    15    17    1
