@<TRIPOS>MOLECULE
3zid_GDP_1_ligand
   40    42     1     0     0
SMALL
NO_CHARGES


@<TRIPOS>ATOM
     1 PB          15.0320   -15.9370   -16.4150 P.3          1 GDP999   0.0000
     2 O1B         14.5220   -14.6100   -15.8800 O.co2        1 GDP999   0.0000
     3 O2B         14.7230   -17.0450   -15.4270 O.co2        1 GDP999  -1.0000
     4 O3B         14.3520   -16.2070   -17.7460 O.co2        1 GDP999  -1.0000
     5 O3A         16.6060   -15.8310   -16.7050 O.3          1 GDP999   0.0000
     6 PA          17.6950   -15.5820   -15.5520 P.3          1 GDP999   0.0000
     7 O1A         18.4980   -16.8120   -15.3080 O.co2        1 GDP999   0.0000
     8 O2A         17.1100   -15.0130   -14.2780 O.co2        1 GDP999  -1.0000
     9 O5'         18.5470   -14.4380   -16.2560 O.3          1 GDP999   0.0000
    10 C5'         19.8660   -14.7310   -16.6900 C.3          1 GDP999   0.0000
    11 C4'         20.7720   -13.6110   -16.1990 C.3          1 GDP999   0.0000
    12 O4'         20.7860   -13.6500   -14.7710 O.3          1 GDP999   0.0000
    13 C3'         22.1770   -13.8760   -16.6660 C.3          1 GDP999   0.0000
    14 O3'         22.8250   -12.6080   -16.7410 O.3          1 GDP999   0.0000
    15 C2'         22.7430   -14.6940   -15.5380 C.3          1 GDP999   0.0000
    16 O2'         24.1540   -14.5180   -15.4790 O.3          1 GDP999   0.0000
    17 C1'         22.0820   -14.0650   -14.3280 C.3          1 GDP999   0.0000
    18 N9          21.8320   -14.9740   -13.2090 N.pl3        1 GDP999   0.0000
    19 C8          21.1860   -16.1560   -13.2420 C.2          1 GDP999   0.0000
    20 N7          21.0930   -16.6780   -11.9950 N.2          1 GDP999   0.0000
    21 C5          21.6920   -15.8070   -11.1570 C.2          1 GDP999   0.0000
    22 C6          21.9330   -15.7240    -9.7140 C.2          1 GDP999   0.0000
    23 O6          21.5740   -16.6430    -8.9670 O.2          1 GDP999   0.0000
    24 N1          22.5660   -14.6500    -9.2450 N.pl3        1 GDP999   0.0000
    25 C2          22.9820   -13.6530   -10.0370 C.2          1 GDP999   0.0000
    26 N2          23.6240   -12.6110    -9.4680 N.pl3        1 GDP999   0.0000
    27 N3          22.8000   -13.6410   -11.3800 N.2          1 GDP999   0.0000
    28 C4          22.1610   -14.6780   -11.9650 C.2          1 GDP999   0.0000
    29 H5'1        19.8936   -14.7789   -17.6885 H            1 GDP999   0.0000
    30 H5'2        20.1651   -15.6045   -16.3060 H            1 GDP999   0.0000
    31 H4'         20.4497   -12.7231   -16.5273 H            1 GDP999   0.0000
    32 H3'         22.2004   -14.3655   -17.5377 H            1 GDP999   0.0000
    33 H5          23.5217   -12.6316   -17.4580 H            1 GDP999   0.0000
    34 H2'         22.4983   -15.6594   -15.6278 H            1 GDP999   0.0000
    35 H7          24.5633   -14.8149   -16.3417 H            1 GDP999   0.0000
    36 H1'         22.6102   -13.2743   -14.0186 H            1 GDP999   0.0000
    37 H9          20.8262   -16.5870   -14.0695 H            1 GDP999   0.0000
    38 H10         22.7376   -14.5854    -8.2620 H            1 GDP999   0.0000
    39 H11         23.9459   -11.8524   -10.0344 H            1 GDP999   0.0000
    40 H12         23.7778   -12.5976    -8.4800 H            1 GDP999   0.0000
@<TRIPOS>BOND
     1    1    2      ar
     2    1    3      ar
     3    1    4      ar
     4    1    5       1
     5    5    6       1
     6    6    7      ar
     7    6    8      ar
     8    6    9       1
     9    9   10       1
    10   10   11       1
    11   11   12       1
    12   11   13       1
    13   12   17       1
    14   13   14       1
    15   13   15       1
    16   15   16       1
    17   15   17       1
    18   17   18       1
    19   18   19       1
    20   18   28       1
    21   19   20       2
    22   20   21       1
    23   21   22       1
    24   21   28       2
    25   22   23       2
    26   22   24       1
    27   24   25       1
    28   25   26       1
    29   25   27       2
    30   27   28       1
    31   26   40       1
    32   26   39       1
    33   24   38       1
    34   10   29       1
    35   10   30       1
    36   11   31       1
    37   13   32       1
    38   14   33       1
    39   15   34       1
    40   16   35       1
    41   17   36       1
    42   19   37       1
@<TRIPOS>SUBSTRUCTURE
     1 GDP999      1 GROUP             4 A     GDP     0 **** GDP A 999
