@<TRIPOS>MOLECULE
4i1w_NAD_1_ligand
   70    74     1     0     0
SMALL
NO_CHARGES


@<TRIPOS>ATOM
     1 PA          52.8500    66.4520    31.7270 P.3          1 NAD601   0.0000
     2 O1A         54.2540    67.1010    31.9480 O.co2        1 NAD601   0.0000
     3 O2A         53.3160    66.0910    30.3040 O.co2        1 NAD601  -1.0000
     4 O5B         52.2090    67.8430    32.0400 O.3          1 NAD601   0.0000
     5 C5B         51.7860    68.1830    33.3100 C.3          1 NAD601   0.0000
     6 C4B         51.2150    69.5710    33.3220 C.3          1 NAD601   0.0000
     7 O4B         52.0500    70.4390    32.5820 O.3          1 NAD601   0.0000
     8 C3B         49.8520    69.6640    32.7230 C.3          1 NAD601   0.0000
     9 O3B         49.0410    70.5980    33.3920 O.3          1 NAD601   0.0000
    10 C2B         50.1420    70.1340    31.3400 C.3          1 NAD601   0.0000
    11 O2B         49.0730    70.8220    30.7740 O.3          1 NAD601   0.0000
    12 C1B         51.2830    71.0690    31.6080 C.3          1 NAD601   0.0000
    13 N9A         52.1240    71.3640    30.4660 N.pl3        1 NAD601   0.0000
    14 C8A         52.5040    70.5140    29.4880 C.2          1 NAD601   0.0000
    15 N7A         53.2780    71.1380    28.6280 N.2          1 NAD601   0.0000
    16 C5A         53.4710    72.3940    29.0340 C.ar         1 NAD601   0.0000
    17 C6A         54.1670    73.4980    28.5530 C.ar         1 NAD601   0.0000
    18 N6A         54.9360    73.4300    27.3500 N.pl3        1 NAD601   0.0000
    19 N1A         54.1430    74.6520    29.2230 N.ar         1 NAD601   0.0000
    20 C2A         53.4360    74.7990    30.3560 C.ar         1 NAD601   0.0000
    21 N3A         52.7380    73.7670    30.8490 N.ar         1 NAD601   0.0000
    22 C4A         52.7280    72.5640    30.2170 C.ar         1 NAD601   0.0000
    23 O3          53.1030    65.4790    32.9380 O.3          1 NAD601   0.0000
    24 PN          51.8970    64.4660    33.2650 P.3          1 NAD601   0.0000
    25 O1N         51.7320    63.4950    32.1240 O.co2        1 NAD601   0.0000
    26 O2N         50.5980    65.2150    33.4580 O.co2        1 NAD601  -1.0000
    27 O5D         52.3390    63.6700    34.5410 O.3          1 NAD601   0.0000
    28 C5D         53.2420    62.6580    34.3100 C.3          1 NAD601   0.0000
    29 C4D         54.5060    62.8110    35.0870 C.3          1 NAD601   0.0000
    30 O4D         54.6650    63.7180    36.1390 O.3          1 NAD601   0.0000
    31 C3D         55.5170    61.7190    35.1190 C.3          1 NAD601   0.0000
    32 O3D         56.7380    62.0060    34.5270 O.3          1 NAD601   0.0000
    33 C2D         55.6180    61.6530    36.5880 C.3          1 NAD601   0.0000
    34 O2D         56.7160    60.9670    37.0480 O.3          1 NAD601   0.0000
    35 C1D         55.6280    63.1010    36.9380 C.3          1 NAD601   0.0000
    36 N1N         55.3090    63.2130    38.3140 N.ar         1 NAD601   1.0000
    37 C2N         56.3170    63.5130    39.1760 C.ar         1 NAD601   0.0000
    38 C3N         56.0670    63.5880    40.5220 C.ar         1 NAD601   0.0000
    39 C7N         57.1920    63.9410    41.4600 C.2          1 NAD601   0.0000
    40 O7N         57.0700    63.9969    42.6916 O.2          1 NAD601   0.0000
    41 N7N         58.4613    64.2083    40.8911 N.am         1 NAD601   0.0000
    42 C4N         54.7730    63.3760    40.9750 C.ar         1 NAD601   0.0000
    43 C5N         53.7550    63.0470    40.1030 C.ar         1 NAD601   0.0000
    44 C6N         54.0260    62.9790    38.7500 C.ar         1 NAD601   0.0000
    45 H5B1        52.5636    68.1420    33.9375 H            1 NAD601   0.0000
    46 H5B2        51.0836    67.5360    33.6068 H            1 NAD601   0.0000
    47 H4B         51.1734    69.8935    34.2677 H            1 NAD601   0.0000
    48 H3B         49.4132    68.7656    32.7049 H            1 NAD601   0.0000
    49 H5          48.9418    70.3278    34.3497 H            1 NAD601   0.0000
    50 H2B         50.4297    69.3749    30.7560 H            1 NAD601   0.0000
    51 H7          48.2743    70.2217    30.7333 H            1 NAD601   0.0000
    52 H1B         50.9234    71.9253    31.9787 H            1 NAD601   0.0000
    53 H8A         52.2363    69.5524    29.4270 H            1 NAD601   0.0000
    54 H6A1        55.4277    74.2376    27.0246 H            1 NAD601   0.0000
    55 H6A2        54.9822    72.5748    26.8338 H            1 NAD601   0.0000
    56 H2A         53.4307    75.6788    30.8314 H            1 NAD601   0.0000
    57 H5D1        53.4668    62.6487    33.3356 H            1 NAD601   0.0000
    58 H5D2        52.8169    61.7887    34.5623 H            1 NAD601   0.0000
    59 H4D         54.9787    63.3662    34.4027 H            1 NAD601   0.0000
    60 H3D         55.1351    60.8711    34.7513 H            1 NAD601   0.0000
    61 H17         57.1370    61.1651    34.1614 H            1 NAD601   0.0000
    62 H2D         54.7891    61.2315    36.9559 H            1 NAD601   0.0000
    63 H19         56.9655    60.2571    36.3894 H            1 NAD601   0.0000
    64 H1D         56.5299    63.4941    36.7588 H            1 NAD601   0.0000
    65 H2N         57.2399    63.6788    38.8285 H            1 NAD601   0.0000
    66 H7N1        59.2381    64.4264    41.4819 H            1 NAD601   0.0000
    67 H7N2        58.5807    64.1789    39.8987 H            1 NAD601   0.0000
    68 H4N         54.5742    63.4631    41.9512 H            1 NAD601   0.0000
    69 H5N         52.8343    62.8605    40.4457 H            1 NAD601   0.0000
    70 H6N         53.2998    62.7628    38.0973 H            1 NAD601   0.0000
@<TRIPOS>BOND
     1    1    2      ar
     2    1    3      ar
     3    1    4       1
     4    1   23       1
     5    4    5       1
     6    5    6       1
     7    6    7       1
     8    6    8       1
     9    7   12       1
    10    8    9       1
    11    8   10       1
    12   10   11       1
    13   10   12       1
    14   12   13       1
    15   13   14       1
    16   13   22       1
    17   14   15       2
    18   15   16       1
    19   16   17      ar
    20   16   22      ar
    21   17   18       1
    22   17   19      ar
    23   19   20      ar
    24   20   21      ar
    25   21   22      ar
    26   23   24       1
    27   24   25      ar
    28   24   26      ar
    29   24   27       1
    30   27   28       1
    31   28   29       1
    32   29   30       1
    33   29   31       1
    34   30   35       1
    35   31   32       1
    36   31   33       1
    37   33   34       1
    38   33   35       1
    39   35   36       1
    40   36   37      ar
    41   36   44      ar
    42   37   38      ar
    43   38   39       1
    44   38   42      ar
    45   39   40       2
    46   39   41      am
    47   42   43      ar
    48   43   44      ar
    49   44   70       1
    50    5   45       1
    51    5   46       1
    52    6   47       1
    53    8   48       1
    54    9   49       1
    55   10   50       1
    56   11   51       1
    57   12   52       1
    58   14   53       1
    59   18   54       1
    60   18   55       1
    61   20   56       1
    62   43   69       1
    63   28   57       1
    64   28   58       1
    65   29   59       1
    66   31   60       1
    67   32   61       1
    68   33   62       1
    69   34   63       1
    70   35   64       1
    71   37   65       1
    72   41   66       1
    73   41   67       1
    74   42   68       1
@<TRIPOS>SUBSTRUCTURE
     1 NAD601      1 GROUP             4 A     NAD     0 **** NAD A 601
