@<TRIPOS>MOLECULE
1i0s_FMN_1_ligand
   50    52     1     0     0
SMALL
NO_CHARGES


@<TRIPOS>ATOM
     1 N1          23.5430    -9.9660    72.1350 N.2          1 FMN2000   0.0000
     2 C2          22.2930    -9.6840    71.6940 C.2          1 FMN2000   0.0000
     3 O2          21.4260   -10.5280    71.5680 O.2          1 FMN2000   0.0000
     4 N3          21.9660    -8.3260    71.3880 N.pl3        1 FMN2000   0.0000
     5 C4          22.8280    -7.2590    71.4910 C.2          1 FMN2000   0.0000
     6 O4          22.4520    -6.1120    71.2090 O.2          1 FMN2000   0.0000
     7 C4A         24.1820    -7.5780    71.9590 C.2          1 FMN2000   0.0000
     8 N5          25.1090    -6.6200    72.0960 N.2          1 FMN2000   0.0000
     9 C5A         26.3460    -6.9690    72.6110 C.ar         1 FMN2000   0.0000
    10 C6          27.3660    -5.9480    72.8150 C.ar         1 FMN2000   0.0000
    11 C7          28.5970    -6.2030    73.3550 C.ar         1 FMN2000   0.0000
    12 C7M         29.6620    -5.1080    73.5510 C.3          1 FMN2000   0.0000
    13 C8          28.9120    -7.5750    73.8060 C.ar         1 FMN2000   0.0000
    14 C8M         30.2360    -7.9080    74.4590 C.3          1 FMN2000   0.0000
    15 C9          27.9530    -8.5780    73.5890 C.ar         1 FMN2000   0.0000
    16 C9A         26.6930    -8.3280    73.0020 C.ar         1 FMN2000   0.0000
    17 N10         25.7020    -9.3120    72.7560 N.pl3        1 FMN2000   0.0000
    18 C10         24.4480    -9.0020    72.2800 C.2          1 FMN2000   0.0000
    19 C1'         25.9810   -10.7320    73.0670 C.3          1 FMN2000   0.0000
    20 C2'         25.4980   -11.2130    74.4320 C.3          1 FMN2000   0.0000
    21 O2'         25.7950   -10.2990    75.4850 O.3          1 FMN2000   0.0000
    22 C3'         26.1940   -12.5310    74.7180 C.3          1 FMN2000   0.0000
    23 O3'         25.8950   -13.4990    73.6610 O.3          1 FMN2000   0.0000
    24 C4'         25.8460   -13.1250    76.0610 C.3          1 FMN2000   0.0000
    25 O4'         26.8160   -14.1590    76.3470 O.3          1 FMN2000   0.0000
    26 C5'         24.4880   -13.7600    76.1330 C.3          1 FMN2000   0.0000
    27 O5'         24.2940   -14.2480    77.4780 O.3          1 FMN2000   0.0000
    28 P           23.0270   -15.1660    77.8570 P.3          1 FMN2000   0.0000
    29 O1P         23.1230   -16.4260    77.0500 O.co2        1 FMN2000   0.0000
    30 O2P         21.7980   -14.3610    77.5850 O.co2        1 FMN2000  -1.0000
    31 O3P         23.2660   -15.4160    79.3580 O.co2        1 FMN2000  -1.0000
    32 H1          21.0357    -8.1367    71.0738 H            1 FMN2000   0.0000
    33 H2          27.1543    -5.0087    72.5452 H            1 FMN2000   0.0000
    34 H7M1        30.4821    -5.5097    73.9585 H            1 FMN2000   0.0000
    35 H7M2        29.8930    -4.7053    72.6653 H            1 FMN2000   0.0000
    36 H7M3        29.3025    -4.3979    74.1564 H            1 FMN2000   0.0000
    37 H8M1        30.2580    -8.8805    74.6910 H            1 FMN2000   0.0000
    38 H8M2        30.9816    -7.6993    73.8261 H            1 FMN2000   0.0000
    39 H8M3        30.3432    -7.3642    75.2914 H            1 FMN2000   0.0000
    40 H9          28.1729    -9.5141    73.8633 H            1 FMN2000   0.0000
    41 H1'1        26.9709   -10.8678    73.0251 H            1 FMN2000   0.0000
    42 H1'2        25.5377   -11.2932    72.3681 H            1 FMN2000   0.0000
    43 H2'         24.5101   -11.3639    74.3966 H            1 FMN2000   0.0000
    44 H13         25.3527    -9.4216    75.2994 H            1 FMN2000   0.0000
    45 H3'         27.1797   -12.3630    74.7062 H            1 FMN2000   0.0000
    46 H15         24.9895   -13.3091    73.2815 H            1 FMN2000   0.0000
    47 H4'         25.9114   -12.4130    76.7602 H            1 FMN2000   0.0000
    48 H17         26.6106   -14.5726    77.2340 H            1 FMN2000   0.0000
    49 H5'1        24.4340   -14.5199    75.4852 H            1 FMN2000   0.0000
    50 H5'2        23.7851   -13.0837    75.9128 H            1 FMN2000   0.0000
@<TRIPOS>BOND
     1    1    2       1
     2    1   18       2
     3    2    3       2
     4    2    4       1
     5    4    5       1
     6    5    6       2
     7    5    7       1
     8    7    8       2
     9    7   18       1
    10    8    9       1
    11    9   10      ar
    12    9   16      ar
    13   10   11      ar
    14   11   12       1
    15   11   13      ar
    16   13   14       1
    17   13   15      ar
    18   15   16      ar
    19   16   17       1
    20   17   18       1
    21   17   19       1
    22   19   20       1
    23   20   21       1
    24   20   22       1
    25   22   23       1
    26   22   24       1
    27   24   25       1
    28   24   26       1
    29   26   27       1
    30   27   28       1
    31   28   29      ar
    32   28   30      ar
    33   28   31      ar
    34    4   32       1
    35   10   33       1
    36   12   34       1
    37   12   35       1
    38   12   36       1
    39   14   37       1
    40   14   38       1
    41   14   39       1
    42   15   40       1
    43   19   41       1
    44   19   42       1
    45   20   43       1
    46   21   44       1
    47   22   45       1
    48   23   46       1
    49   24   47       1
    50   25   48       1
    51   26   49       1
    52   26   50       1
@<TRIPOS>SUBSTRUCTURE
     1 FMN2000     1 GROUP             4 A     FMN     0 **** FMN A2000
