@<TRIPOS>MOLECULE
4qi7_FAD_4_ligand
   84    89     1     0     0
SMALL
NO_CHARGES


@<TRIPOS>ATOM
     1 PA         153.7420    -9.1240   207.0900 P.3          1 FAD902   0.0000
     2 O1A        152.9500   -10.1110   206.2520 O.co2        1 FAD902   0.0000
     3 O2A        153.1040    -7.8130   207.4440 O.co2        1 FAD902  -1.0000
     4 O5B        155.0600    -8.7560   206.3080 O.3          1 FAD902   0.0000
     5 C5B        155.6180    -9.7660   205.5290 C.3          1 FAD902   0.0000
     6 C4B        156.3540    -9.1080   204.3960 C.3          1 FAD902   0.0000
     7 O4B        157.4980    -9.8570   204.0680 O.3          1 FAD902   0.0000
     8 C3B        155.5110    -9.0770   203.1600 C.3          1 FAD902   0.0000
     9 O3B        155.7630    -7.8320   202.5780 O.3          1 FAD902   0.0000
    10 C2B        156.1340   -10.1250   202.2800 C.3          1 FAD902   0.0000
    11 O2B        155.9920    -9.7130   200.9520 O.3          1 FAD902   0.0000
    12 C1B        157.5800   -10.0430   202.6900 C.3          1 FAD902   0.0000
    13 N9A        158.2680   -11.2890   202.3430 N.pl3        1 FAD902   0.0000
    14 C8A        157.8080   -12.5400   202.5590 C.2          1 FAD902   0.0000
    15 N7A        158.7090   -13.4260   202.0720 N.2          1 FAD902   0.0000
    16 C5A        159.7450   -12.7520   201.5370 C.ar         1 FAD902   0.0000
    17 C6A        160.9290   -13.1680   200.9280 C.ar         1 FAD902   0.0000
    18 N6A        161.4030   -14.3800   201.1450 N.pl3        1 FAD902   0.0000
    19 N1A        161.8150   -12.2280   200.4870 N.ar         1 FAD902   0.0000
    20 C2A        161.5230   -10.8880   200.6630 C.ar         1 FAD902   0.0000
    21 N3A        160.3550   -10.4890   201.2700 N.ar         1 FAD902   0.0000
    22 C4A        159.4750   -11.4050   201.7080 C.ar         1 FAD902   0.0000
    23 N1         146.0950    -6.8290   211.8340 N.2          1 FAD902   0.0000
    24 C2         145.4510    -5.9070   212.6160 C.2          1 FAD902   0.0000
    25 O2         146.0580    -5.4150   213.5700 O.2          1 FAD902   0.0000
    26 N3         144.1450    -5.5530   212.3200 N.pl3        1 FAD902   0.0000
    27 C4         143.4930    -6.1250   211.2430 C.2          1 FAD902   0.0000
    28 O4         142.3270    -5.8250   210.9710 O.2          1 FAD902   0.0000
    29 C4X        144.1620    -7.0560   210.4630 C.2          1 FAD902   0.0000
    30 N5         143.5270    -7.6210   209.3850 N.2          1 FAD902   0.0000
    31 C5X        144.2060    -8.5360   208.6070 C.ar         1 FAD902   0.0000
    32 C6         143.5570    -9.1010   207.5190 C.ar         1 FAD902   0.0000
    33 C7         144.2320   -10.0140   206.7320 C.ar         1 FAD902   0.0000
    34 C7M        143.5110   -10.6050   205.5550 C.3          1 FAD902   0.0000
    35 C8         145.5550   -10.3680   207.0300 C.ar         1 FAD902   0.0000
    36 C8M        146.2740   -11.3630   206.1710 C.3          1 FAD902   0.0000
    37 C9         146.2150    -9.8010   208.1140 C.ar         1 FAD902   0.0000
    38 C9A        145.5270    -8.8810   208.9010 C.ar         1 FAD902   0.0000
    39 N10        146.1570    -8.3190   209.9860 N.pl3        1 FAD902   0.0000
    40 C10        145.4700    -7.4060   210.7570 C.2          1 FAD902   0.0000
    41 C1'        147.1940    -9.1640   210.6510 C.3          1 FAD902   0.0000
    42 C2'        148.4950    -8.3940   210.6780 C.3          1 FAD902   0.0000
    43 O2'        148.5180    -7.5690   209.5410 O.3          1 FAD902   0.0000
    44 C3'        149.6850    -9.3310   210.6400 C.3          1 FAD902   0.0000
    45 O3'        149.7670   -10.1060   211.8200 O.3          1 FAD902   0.0000
    46 C4'        150.9190    -8.4650   210.4280 C.3          1 FAD902   0.0000
    47 O4'        150.8650    -8.0070   209.0890 O.3          1 FAD902   0.0000
    48 C5'        152.2210    -9.2230   210.6880 C.3          1 FAD902   0.0000
    49 O5'        153.3480    -8.4400   210.3530 O.3          1 FAD902   0.0000
    50 P          154.6450    -9.1430   209.7590 P.3          1 FAD902   0.0000
    51 O1P        155.7010    -8.0820   209.5340 O.co2        1 FAD902   0.0000
    52 O2P        155.0510   -10.2360   210.7060 O.co2        1 FAD902  -1.0000
    53 O3P        154.1910    -9.8980   208.4150 O.3          1 FAD902   0.0000
    54 H5B1       154.8966   -10.3579   205.1695 H            1 FAD902   0.0000
    55 H5B2       156.2525   -10.3098   206.0783 H            1 FAD902   0.0000
    56 H4B        156.6168    -8.1782   204.6536 H            1 FAD902   0.0000
    57 H3B        154.5408    -9.2391   203.3401 H            1 FAD902   0.0000
    58 H5         156.6946    -7.5432   202.7989 H            1 FAD902   0.0000
    59 H2B        155.7459   -11.0328   202.4388 H            1 FAD902   0.0000
    60 H7         156.4538    -8.8353   200.8241 H            1 FAD902   0.0000
    61 H1B        158.0260    -9.2610   202.2547 H            1 FAD902   0.0000
    62 H8A        156.9441   -12.7738   203.0052 H            1 FAD902   0.0000
    63 H6A1       162.2524   -14.6709   200.7048 H            1 FAD902   0.0000
    64 H6A2       160.9128   -15.0077   201.7497 H            1 FAD902   0.0000
    65 H2A        162.1719   -10.1974   200.3436 H            1 FAD902   0.0000
    66 H13        143.6711    -4.8802   212.8881 H            1 FAD902   0.0000
    67 H14        142.6124    -8.8506   207.3070 H            1 FAD902   0.0000
    68 H7M1       144.1159   -11.2443   205.0802 H            1 FAD902   0.0000
    69 H7M2       142.6963   -11.0903   205.8725 H            1 FAD902   0.0000
    70 H7M3       143.2406    -9.8741   204.9284 H            1 FAD902   0.0000
    71 H8M1       147.2004   -11.4988   206.5223 H            1 FAD902   0.0000
    72 H8M2       145.7813   -12.2331   206.1851 H            1 FAD902   0.0000
    73 H8M3       146.3202   -11.0212   205.2324 H            1 FAD902   0.0000
    74 H21        147.1611   -10.0478   208.3236 H            1 FAD902   0.0000
    75 H1'1       147.3157   -10.0142   210.1387 H            1 FAD902   0.0000
    76 H1'2       146.9080    -9.3760   211.5855 H            1 FAD902   0.0000
    77 H2'        148.5360    -7.8310   211.5034 H            1 FAD902   0.0000
    78 H25        149.4642    -7.4317   209.2479 H            1 FAD902   0.0000
    79 H3'        149.5853    -9.9459   209.8577 H            1 FAD902   0.0000
    80 H27        150.5599   -10.7129   211.7657 H            1 FAD902   0.0000
    81 H4'        150.8730    -7.6777   211.0428 H            1 FAD902   0.0000
    82 H29        151.7943    -7.8726   208.7449 H            1 FAD902   0.0000
    83 H5'1       152.2281   -10.0567   210.1358 H            1 FAD902   0.0000
    84 H5'2       152.2690    -9.4647   211.6572 H            1 FAD902   0.0000
@<TRIPOS>BOND
     1    1    2      ar
     2    1    3      ar
     3    1    4       1
     4    1   53       1
     5    4    5       1
     6    5    6       1
     7    6    7       1
     8    6    8       1
     9    7   12       1
    10    8    9       1
    11    8   10       1
    12   10   11       1
    13   10   12       1
    14   12   13       1
    15   13   14       1
    16   13   22       1
    17   14   15       2
    18   15   16       1
    19   16   17      ar
    20   16   22      ar
    21   17   18       1
    22   17   19      ar
    23   19   20      ar
    24   20   21      ar
    25   21   22      ar
    26   23   24       1
    27   23   40       2
    28   24   25       2
    29   24   26       1
    30   26   27       1
    31   27   28       2
    32   27   29       1
    33   29   30       2
    34   29   40       1
    35   30   31       1
    36   31   32      ar
    37   31   38      ar
    38   32   33      ar
    39   33   34       1
    40   33   35      ar
    41   35   36       1
    42   35   37      ar
    43   37   38      ar
    44   38   39       1
    45   39   40       1
    46   39   41       1
    47   41   42       1
    48   42   43       1
    49   42   44       1
    50   44   45       1
    51   44   46       1
    52   46   47       1
    53   46   48       1
    54   48   49       1
    55   49   50       1
    56   50   51      ar
    57   50   52      ar
    58   50   53       1
    59   48   84       1
    60    5   54       1
    61    5   55       1
    62    6   56       1
    63    8   57       1
    64    9   58       1
    65   10   59       1
    66   11   60       1
    67   12   61       1
    68   14   62       1
    69   18   63       1
    70   18   64       1
    71   20   65       1
    72   26   66       1
    73   32   67       1
    74   34   68       1
    75   34   69       1
    76   34   70       1
    77   36   71       1
    78   36   72       1
    79   36   73       1
    80   37   74       1
    81   41   75       1
    82   41   76       1
    83   42   77       1
    84   43   78       1
    85   44   79       1
    86   45   80       1
    87   46   81       1
    88   47   82       1
    89   48   83       1
@<TRIPOS>SUBSTRUCTURE
     1 FAD902      1 GROUP             4 B     FAD     0 **** FAD B 902
