@<TRIPOS>MOLECULE
3bej_MUF_1_ligand
   62    66     1     0     0
SMALL
NO_CHARGES


@<TRIPOS>ATOM
     1 C1          22.2900    -9.4740     6.1950 C.3          1 MUF473   0.0000
     2 C2          21.8420    -9.9470     4.7820 C.3          1 MUF473   0.0000
     3 C3          21.1850   -11.3190     4.8900 C.2          1 MUF473   0.0000
     4 C4          20.6410   -11.7950     6.0460 C.2          1 MUF473   0.0000
     5 C5          20.6320   -11.0300     7.2930 C.2          1 MUF473   0.0000
     6 C6          20.2290   -11.6210     8.4540 C.2          1 MUF473   0.0000
     7 C7          20.1590   -10.8810     9.7720 C.3          1 MUF473   0.0000
     8 C8          20.5120    -9.3430     9.7630 C.3          1 MUF473   0.0000
     9 C9          21.6100    -9.0680     8.6850 C.3          1 MUF473   0.0000
    10 C10         21.0990    -9.5420     7.2460 C.3          1 MUF473   0.0000
    11 C11         22.0070    -7.5610     8.6590 C.3          1 MUF473   0.0000
    12 C12         22.4590    -7.0870    10.0610 C.3          1 MUF473   0.0000
    13 C13         21.3560    -7.3440    11.1680 C.3          1 MUF473   0.0000
    14 C14         21.0110    -8.8670    11.1360 C.3          1 MUF473   0.0000
    15 C15         20.0080    -8.9940    12.3020 C.3          1 MUF473   0.0000
    16 C16         20.5310    -7.9400    13.3230 C.3          1 MUF473   0.0000
    17 C17         21.7760    -7.2720    12.6610 C.3          1 MUF473   0.0000
    18 C18         20.1310    -6.4030    10.8190 C.3          1 MUF473   0.0000
    19 C19         19.8870    -8.6300     6.7660 C.3          1 MUF473   0.0000
    20 C20         22.1100    -5.7930    12.9620 C.2          1 MUF473   0.0000
    21 O52         21.2020    -4.9670    13.0830 O.2          1 MUF473   0.0000
    22 C28         21.1160   -12.2400     3.7600 C.2          1 MUF473   0.0000
    23 O76         21.3200   -11.6060     2.5960 O.co2        1 MUF473   0.0000
    24 O82         20.9290   -13.4410     3.8530 O.co2        1 MUF473  -1.0000
    25 C52         23.5130    -5.2940    13.0660 C.ar         1 MUF473   0.0000
    26 C53         24.6070    -6.1380    13.4260 C.ar         1 MUF473   0.0000
    27 C54         25.9110    -5.5880    13.5060 C.ar         1 MUF473   0.0000
    28 C55         26.1230    -4.2250    13.2390 C.ar         1 MUF473   0.0000
    29 C56         25.0510    -3.3700    12.8910 C.ar         1 MUF473   0.0000
    30 C57         23.7430    -3.9140    12.8010 C.ar         1 MUF473   0.0000
    31 O57         27.3970    -3.7510    13.3440 O.3          1 MUF473   0.0000
    32 H1          22.6132    -8.5297     6.1328 H            1 MUF473   0.0000
    33 H2          23.0350   -10.0611     6.5117 H            1 MUF473   0.0000
    34 H3          22.6396   -10.0057     4.1817 H            1 MUF473   0.0000
    35 H4          21.1873    -9.2927     4.4035 H            1 MUF473   0.0000
    36 H5          20.2303   -12.7067     6.0413 H            1 MUF473   0.0000
    37 H6          19.9682   -12.5862     8.4334 H            1 MUF473   0.0000
    38 H7          20.7927   -11.3302    10.4018 H            1 MUF473   0.0000
    39 H8          19.2250   -10.9720    10.1175 H            1 MUF473   0.0000
    40 H9          19.6901    -8.8263     9.5233 H            1 MUF473   0.0000
    41 H10         22.4218    -9.6021     8.9210 H            1 MUF473   0.0000
    42 H11         21.2183    -7.0193     8.3684 H            1 MUF473   0.0000
    43 H12         22.7577    -7.4309     8.0113 H            1 MUF473   0.0000
    44 H13         22.6528    -6.1067    10.0219 H            1 MUF473   0.0000
    45 H14         23.2904    -7.5813    10.3148 H            1 MUF473   0.0000
    46 H15         21.8350    -9.3832    11.3697 H            1 MUF473   0.0000
    47 H16         20.0252    -9.9141    12.6934 H            1 MUF473   0.0000
    48 H17         19.0789    -8.7761    12.0033 H            1 MUF473   0.0000
    49 H18         20.7914    -8.3863    14.1791 H            1 MUF473   0.0000
    50 H19         19.8260    -7.2547    13.5054 H            1 MUF473   0.0000
    51 H20         22.5853    -7.8394    12.8127 H            1 MUF473   0.0000
    52 H21         19.4070    -6.5334    11.4963 H            1 MUF473   0.0000
    53 H22         20.4299    -5.4488    10.8301 H            1 MUF473   0.0000
    54 H23         19.7826    -6.6326     9.9102 H            1 MUF473   0.0000
    55 H24         19.1456    -8.6817     7.4350 H            1 MUF473   0.0000
    56 H25         20.1954    -7.6824     6.6828 H            1 MUF473   0.0000
    57 H26         19.5582    -8.9527     5.8784 H            1 MUF473   0.0000
    58 H27         24.4548    -7.1072    13.6197 H            1 MUF473   0.0000
    59 H28         26.6835    -6.1727    13.7536 H            1 MUF473   0.0000
    60 H29         25.2119    -2.3995    12.7116 H            1 MUF473   0.0000
    61 H30         22.9765    -3.3231    12.5493 H            1 MUF473   0.0000
    62 H31         28.1402    -4.3678    13.6032 H            1 MUF473   0.0000
@<TRIPOS>BOND
     1    1    2       1
     2    1   10       1
     3    2    3       1
     4    3    4       2
     5    3   22       1
     6    4    5       1
     7    5    6       2
     8    5   10       1
     9    6    7       1
    10    7    8       1
    11    8    9       1
    12    8   14       1
    13    9   10       1
    14    9   11       1
    15   10   19       1
    16   11   12       1
    17   12   13       1
    18   13   14       1
    19   13   17       1
    20   13   18       1
    21   14   15       1
    22   15   16       1
    23   16   17       1
    24   17   20       1
    25   20   21       2
    26   20   25       1
    27   22   23      ar
    28   22   24      ar
    29   25   26      ar
    30   25   30      ar
    31   26   27      ar
    32   27   28      ar
    33   28   29      ar
    34   28   31       1
    35   29   30      ar
    36    1   32       1
    37    1   33       1
    38    2   34       1
    39    2   35       1
    40    4   36       1
    41    6   37       1
    42    7   38       1
    43    7   39       1
    44    8   40       1
    45    9   41       1
    46   11   42       1
    47   11   43       1
    48   12   44       1
    49   12   45       1
    50   14   46       1
    51   15   47       1
    52   15   48       1
    53   16   49       1
    54   16   50       1
    55   17   51       1
    56   18   52       1
    57   18   53       1
    58   18   54       1
    59   19   55       1
    60   19   56       1
    61   19   57       1
    62   31   62       1
    63   26   58       1
    64   27   59       1
    65   29   60       1
    66   30   61       1
@<TRIPOS>SUBSTRUCTURE
     1 MUF473      1 GROUP             4 A     MUF     0 **** MUF A 473
