@<TRIPOS>MOLECULE
4y3l_TP5_1_ligand
   15    15     1     0     0
SMALL
NO_CHARGES


@<TRIPOS>ATOM
     1 C4          -4.1740     1.0910    11.1510 C.2          1 TP5411   0.0000
     2 S1          -2.5970     0.6640    10.6870 S.3          1 TP5411   0.0000
     3 C5          -3.0690    -0.9430    10.2820 C.2          1 TP5411   0.0000
     4 C3          -4.4020    -1.1230    10.5080 C.2          1 TP5411   0.0000
     5 C1          -5.0570     0.0520    11.0130 C.2          1 TP5411   0.0000
     6 C2          -6.4560     0.1210    11.3330 C.cat        1 TP5411   0.0000
     7 N2          -7.0660    -0.9320    11.8220 N.pl3        1 TP5411   1.0000
     8 N1          -7.1070     1.2380    11.1360 N.pl3        1 TP5411   0.0000
     9 H1          -4.4293     1.9977    11.4868 H            1 TP5411   0.0000
    10 H2          -2.4512    -1.6462     9.9300 H            1 TP5411   0.0000
    11 H3          -4.8764    -1.9870    10.3390 H            1 TP5411   0.0000
    12 H4          -8.0396    -0.8869    12.0456 H            1 TP5411   0.0000
    13 H5          -6.5575    -1.7800    11.9712 H            1 TP5411   0.0000
    14 H6          -8.0809     1.2946    11.3560 H            1 TP5411   0.0000
    15 H7          -6.6309     2.0355    10.7654 H            1 TP5411   0.0000
@<TRIPOS>BOND
     1    1    2       1
     2    1    5       2
     3    2    3       1
     4    3    4       2
     5    4    5       1
     6    5    6       1
     7    6    7      ar
     8    6    8      ar
     9    1    9       1
    10    3   10       1
    11    4   11       1
    12    7   12       1
    13    7   13       1
    14    8   14       1
    15    8   15       1
@<TRIPOS>SUBSTRUCTURE
     1 TP5411      1 GROUP             4 A     TP5     0 **** TP5 A 411
