@<TRIPOS>MOLECULE
2d1c_NAP_1_ligand
   73    77     1     0     0
SMALL
NO_CHARGES


@<TRIPOS>ATOM
     1 PA          21.7650    60.5330    56.5820 P.3          1 NAP1002   0.0000
     2 O1A         22.6330    61.7720    56.9470 O.co2        1 NAP1002   0.0000
     3 O2A         21.9710    59.4130    57.3660 O.co2        1 NAP1002  -1.0000
     4 O5B         22.0110    60.1020    55.1050 O.3          1 NAP1002   0.0000
     5 C5B         21.8430    61.0460    53.8950 C.3          1 NAP1002   0.0000
     6 C4B         22.8610    61.0220    52.8280 C.3          1 NAP1002   0.0000
     7 O4B         24.0280    61.7130    53.3620 O.3          1 NAP1002   0.0000
     8 C3B         23.3730    59.7290    52.5720 C.3          1 NAP1002   0.0000
     9 O3B         22.5780    58.7030    51.9850 O.3          1 NAP1002   0.0000
    10 C2B         24.6850    60.0220    51.8900 C.3          1 NAP1002   0.0000
    11 O2B         24.4110    60.6130    50.4750 O.3          1 NAP1002   0.0000
    12 C1B         25.2020    61.0820    52.7710 C.3          1 NAP1002   0.0000
    13 N9A         26.0250    60.7030    53.9460 N.pl3        1 NAP1002   0.0000
    14 C8A         25.7090    60.7360    55.3050 C.2          1 NAP1002   0.0000
    15 N7A         26.6520    60.3470    56.0940 N.2          1 NAP1002   0.0000
    16 C5A         27.6720    60.0280    55.2460 C.ar         1 NAP1002   0.0000
    17 C6A         28.9880    59.5430    55.4900 C.ar         1 NAP1002   0.0000
    18 N6A         29.4060    59.3270    56.7060 N.pl3        1 NAP1002   0.0000
    19 N1A         29.8220    59.3030    54.3990 N.ar         1 NAP1002   0.0000
    20 C2A         29.3740    59.5340    53.1250 C.ar         1 NAP1002   0.0000
    21 N3A         28.1440    59.9970    52.8140 N.ar         1 NAP1002   0.0000
    22 C4A         27.3200    60.2320    53.9260 C.ar         1 NAP1002   0.0000
    23 O3          20.3260    60.8150    56.3660 O.3          1 NAP1002   0.0000
    24 PN          18.8550    60.2120    56.3140 P.3          1 NAP1002   0.0000
    25 O1N         18.8820    59.0830    55.3740 O.co2        1 NAP1002   0.0000
    26 O2N         17.8890    61.2580    55.9730 O.co2        1 NAP1002  -1.0000
    27 O5D         18.4680    59.5240    57.8830 O.3          1 NAP1002   0.0000
    28 C5D         18.7560    58.3230    58.0400 C.3          1 NAP1002   0.0000
    29 C4D         18.5370    58.1440    59.6970 C.3          1 NAP1002   0.0000
    30 O4D         19.4010    58.9570    60.3380 O.3          1 NAP1002   0.0000
    31 C3D         17.1950    58.5460    60.4640 C.3          1 NAP1002   0.0000
    32 O3D         16.5570    57.8430    61.4570 O.3          1 NAP1002   0.0000
    33 C2D         17.6380    60.0090    60.8190 C.3          1 NAP1002   0.0000
    34 O2D         16.6990    60.6770    61.9270 O.3          1 NAP1002   0.0000
    35 C1D         19.0900    59.7600    61.3030 C.3          1 NAP1002   0.0000
    36 N1N         19.9040    60.9710    61.6330 N.ar         1 NAP1002   1.0000
    37 C2N         20.6460    61.0010    62.8370 C.ar         1 NAP1002   0.0000
    38 C3N         21.4390    62.1610    63.0820 C.ar         1 NAP1002   0.0000
    39 C7N         22.2360    62.2230    64.3300 C.2          1 NAP1002   0.0000
    40 O7N         22.5010    61.1740    64.9250 O.2          1 NAP1002   0.0000
    41 N7N         22.6780    63.3740    64.8310 N.am         1 NAP1002   0.0000
    42 C4N         21.5450    63.3930    62.1160 C.ar         1 NAP1002   0.0000
    43 C5N         20.6670    63.1440    60.9060 C.ar         1 NAP1002   0.0000
    44 C6N         19.8960    62.0200    60.6600 C.ar         1 NAP1002   0.0000
    45 P2B         24.1190    59.7990    49.1460 P.3          1 NAP1002   0.0000
    46 O1X         22.9140    59.0220    49.3900 O.co2        1 NAP1002   0.0000
    47 O2X         23.9790    60.8500    48.1540 O.co2        1 NAP1002  -1.0000
    48 O3X         25.2980    58.9460    48.9690 O.co2        1 NAP1002  -1.0000
    49 H5B1        21.8139    61.9795    54.2524 H            1 NAP1002   0.0000
    50 H5B2        20.9657    60.8246    53.4692 H            1 NAP1002   0.0000
    51 H4B         22.5271    61.4571    51.9918 H            1 NAP1002   0.0000
    52 H3B         23.6268    59.3723    53.4711 H            1 NAP1002   0.0000
    53 H5          22.6661    58.7414    50.9896 H            1 NAP1002   0.0000
    54 H2B         25.2863    59.2235    51.8602 H            1 NAP1002   0.0000
    55 H1B         25.6984    61.7550    52.2227 H            1 NAP1002   0.0000
    56 H8A         24.8175    61.0388    55.6419 H            1 NAP1002   0.0000
    57 H6A1        30.3329    58.9862    56.8630 H            1 NAP1002   0.0000
    58 H6A2        28.7996    59.5021    57.4817 H            1 NAP1002   0.0000
    59 H2A         30.0033    59.3462    52.3709 H            1 NAP1002   0.0000
    60 H5D1        19.7015    58.1356    57.7736 H            1 NAP1002   0.0000
    61 H5D2        18.1400    57.7285    57.5232 H            1 NAP1002   0.0000
    62 H4D         18.7616    57.2001    59.9392 H            1 NAP1002   0.0000
    63 H3D         16.5096    58.6527    59.7437 H            1 NAP1002   0.0000
    64 H16         15.5743    58.0235    61.4146 H            1 NAP1002   0.0000
    65 H2D         17.6456    60.5730    59.9932 H            1 NAP1002   0.0000
    66 H18         17.2310    61.3315    62.4642 H            1 NAP1002   0.0000
    67 H1D         19.0316    59.2095    62.1358 H            1 NAP1002   0.0000
    68 H2N         20.6159    60.2423    63.4877 H            1 NAP1002   0.0000
    69 H7N1        23.2134    63.3789    65.6756 H            1 NAP1002   0.0000
    70 H7N2        22.4748    64.2340    64.3628 H            1 NAP1002   0.0000
    71 H4N         22.1011    64.2092    62.2731 H            1 NAP1002   0.0000
    72 H5N         20.6417    63.8655    60.2140 H            1 NAP1002   0.0000
    73 H6N         19.3493    61.9438    59.8261 H            1 NAP1002   0.0000
@<TRIPOS>BOND
     1    1    2      ar
     2    1    3      ar
     3    1    4       1
     4    1   23       1
     5    4    5       1
     6    5    6       1
     7    6    7       1
     8    6    8       1
     9    7   12       1
    10    8    9       1
    11    8   10       1
    12   10   11       1
    13   10   12       1
    14   11   45       1
    15   12   13       1
    16   13   14       1
    17   13   22       1
    18   14   15       2
    19   15   16       1
    20   16   17      ar
    21   16   22      ar
    22   17   18       1
    23   17   19      ar
    24   19   20      ar
    25   20   21      ar
    26   21   22      ar
    27   23   24       1
    28   24   25      ar
    29   24   26      ar
    30   24   27       1
    31   27   28       1
    32   28   29       1
    33   29   30       1
    34   29   31       1
    35   30   35       1
    36   31   32       1
    37   31   33       1
    38   33   34       1
    39   33   35       1
    40   35   36       1
    41   36   37      ar
    42   36   44      ar
    43   37   38      ar
    44   38   39       1
    45   38   42      ar
    46   39   40       2
    47   39   41      am
    48   42   43      ar
    49   43   44      ar
    50   45   46      ar
    51   45   47      ar
    52   45   48      ar
    53   43   72       1
    54    5   49       1
    55    5   50       1
    56    6   51       1
    57    8   52       1
    58    9   53       1
    59   10   54       1
    60   12   55       1
    61   14   56       1
    62   18   57       1
    63   18   58       1
    64   20   59       1
    65   44   73       1
    66   28   60       1
    67   28   61       1
    68   29   62       1
    69   31   63       1
    70   32   64       1
    71   33   65       1
    72   34   66       1
    73   35   67       1
    74   37   68       1
    75   41   69       1
    76   41   70       1
    77   42   71       1
@<TRIPOS>SUBSTRUCTURE
     1 NAP1002     1 GROUP             4 A     NAP     0 **** NAP A1002
