@<TRIPOS>MOLECULE
4ly9_1YY_1_ligand
   66    69     1     0     0
SMALL
NO_CHARGES


@<TRIPOS>ATOM
     1 C22         38.3610   -20.1460    13.5120 C.3          1 1YY714   0.0000
     2 C21         36.9810   -20.7680    13.9080 C.3          1 1YY714   0.0000
     3 C20         35.8760   -20.3360    12.9320 C.3          1 1YY714   0.0000
     4 O4          36.0260   -20.9250    11.6160 O.3          1 1YY714   0.0000
     5 C19         36.2560   -22.3580    11.5800 C.3          1 1YY714   0.0000
     6 C18         37.3810   -22.6940    12.5800 C.3          1 1YY714   0.0000
     7 N3          37.0070   -22.2400    13.9250 N.4          1 1YY714   1.0000
     8 C5          37.9740   -22.7270    14.9270 C.3          1 1YY714   0.0000
     9 C3          37.5180   -23.9710    15.7180 C.3          1 1YY714   0.0000
    10 C2          38.2580   -25.2450    15.1800 C.3          1 1YY714   0.0000
    11 N1          39.7210   -25.0170    15.0960 N.3          1 1YY714   0.0000
    12 S1          40.4540   -26.1770    14.2610 S.o2         1 1YY714   0.0000
    13 O1          41.9100   -26.1510    14.5550 O.2          1 1YY714   0.0000
    14 O2          40.0440   -25.9790    12.8430 O.2          1 1YY714   0.0000
    15 C6          39.8670   -27.7520    14.7180 C.2          1 1YY714   0.0000
    16 C7          38.9010   -28.4650    14.1160 C.2          1 1YY714   0.0000
    17 C8          38.6450   -29.6230    14.7510 C.2          1 1YY714   0.0000
    18 C9          39.3890   -29.9020    15.8550 C.2          1 1YY714   0.0000
    19 S2          40.4700   -28.5870    16.0370 S.3          1 1YY714   0.0000
    20 C1          40.1410   -25.0330    16.4750 C.3          1 1YY714   0.0000
    21 C4          39.3990   -23.9860    17.3200 C.3          1 1YY714   0.0000
    22 N2          38.0150   -23.7150    17.0180 N.pl3        1 1YY714   0.0000
    23 C10         37.2960   -22.9030    17.8870 C.ar         1 1YY714   0.0000
    24 C15         37.8010   -22.6220    19.1490 C.ar         1 1YY714   0.0000
    25 C14         37.1200   -21.8240    20.0360 C.ar         1 1YY714   0.0000
    26 C11         36.0830   -22.3630    17.5500 C.ar         1 1YY714   0.0000
    27 C12         35.3730   -21.5490    18.4190 C.ar         1 1YY714   0.0000
    28 C13         35.8910   -21.2860    19.6620 C.ar         1 1YY714   0.0000
    29 C16         35.1670   -20.3890    20.6220 C.3          1 1YY714   0.0000
    30 C23         34.4870   -21.1030    21.7460 C.3          1 1YY714   0.0000
    31 F2          33.7030   -20.2520    22.4360 F            1 1YY714   0.0000
    32 F3          35.4460   -21.6320    22.5550 F            1 1YY714   0.0000
    33 F1          33.6990   -21.9800    21.1970 F            1 1YY714   0.0000
    34 C17         36.2680   -19.5350    21.2450 C.3          1 1YY714   0.0000
    35 O3          34.2300   -19.6290    19.9080 O.3          1 1YY714   0.0000
    36 H1          39.0597   -20.4433    14.1627 H            1 1YY714   0.0000
    37 H2          38.6115   -20.4488    12.5924 H            1 1YY714   0.0000
    38 H3          38.2938   -19.1484    13.5277 H            1 1YY714   0.0000
    39 H4          36.7391   -20.4451    14.8230 H            1 1YY714   0.0000
    40 H5          35.9015   -19.3405    12.8411 H            1 1YY714   0.0000
    41 H6          34.9918   -20.6139    13.3074 H            1 1YY714   0.0000
    42 H7          36.5296   -22.6334    10.6584 H            1 1YY714   0.0000
    43 H8          35.4193   -22.8412    11.8377 H            1 1YY714   0.0000
    44 H9          38.2234   -22.2351    12.2976 H            1 1YY714   0.0000
    45 H10         37.5284   -23.6830    12.5931 H            1 1YY714   0.0000
    46 H11         38.1436   -21.9886    15.5797 H            1 1YY714   0.0000
    47 H12         38.8246   -22.9547    14.4530 H            1 1YY714   0.0000
    48 H13         36.5240   -24.0802    15.7090 H            1 1YY714   0.0000
    49 H14         37.9089   -25.4652    14.2691 H            1 1YY714   0.0000
    50 H15         38.0818   -26.0107    15.7986 H            1 1YY714   0.0000
    51 H16         38.4251   -28.1682    13.2881 H            1 1YY714   0.0000
    52 H17         37.9384   -30.2514    14.4255 H            1 1YY714   0.0000
    53 H18         39.3189   -30.7097    16.4404 H            1 1YY714   0.0000
    54 H19         41.1219   -24.8428    16.5151 H            1 1YY714   0.0000
    55 H20         39.9615   -25.9401    16.8558 H            1 1YY714   0.0000
    56 H21         39.8964   -23.1236    17.2254 H            1 1YY714   0.0000
    57 H22         39.4395   -24.2915    18.2713 H            1 1YY714   0.0000
    58 H23         38.6822   -23.0100    19.4192 H            1 1YY714   0.0000
    59 H24         37.5023   -21.6316    20.9398 H            1 1YY714   0.0000
    60 H25         35.6976   -22.5622    16.6490 H            1 1YY714   0.0000
    61 H26         34.4946   -21.1585    18.1434 H            1 1YY714   0.0000
    62 H27         35.8650   -18.9014    21.9054 H            1 1YY714   0.0000
    63 H28         36.9263   -20.1271    21.7099 H            1 1YY714   0.0000
    64 H29         36.7341   -19.0170    20.5278 H            1 1YY714   0.0000
    65 H30         34.7023   -19.0787    19.2194 H            1 1YY714   0.0000
    66 H31         36.0955   -22.5848    14.1494 H            1 1YY714   0.0000
@<TRIPOS>BOND
     1    1    2       1
     2    2    3       1
     3    2    7       1
     4    3    4       1
     5    4    5       1
     6    5    6       1
     7    6    7       1
     8    7    8       1
     9    8    9       1
    10    9   10       1
    11    9   22       1
    12   10   11       1
    13   11   12       1
    14   11   20       1
    15   12   13       2
    16   12   14       2
    17   12   15       1
    18   15   16       2
    19   15   19       1
    20   16   17       1
    21   17   18       2
    22   18   19       1
    23   20   21       1
    24   21   22       1
    25   22   23       1
    26   23   24      ar
    27   23   26      ar
    28   24   25      ar
    29   25   28      ar
    30   26   27      ar
    31   27   28      ar
    32   28   29       1
    33   29   30       1
    34   29   34       1
    35   29   35       1
    36   30   31       1
    37   30   32       1
    38   30   33       1
    39    1   36       1
    40    1   37       1
    41    1   38       1
    42    2   39       1
    43    3   40       1
    44    3   41       1
    45    5   42       1
    46    5   43       1
    47    6   44       1
    48    6   45       1
    49    8   46       1
    50    8   47       1
    51    9   48       1
    52   10   49       1
    53   10   50       1
    54   16   51       1
    55   17   52       1
    56   18   53       1
    57   20   54       1
    58   20   55       1
    59   21   56       1
    60   21   57       1
    61   24   58       1
    62   25   59       1
    63   26   60       1
    64   27   61       1
    65   34   62       1
    66   34   63       1
    67   34   64       1
    68   35   65       1
    69    7   66       1
@<TRIPOS>SUBSTRUCTURE
     1 1YY714      1 GROUP             4 A     1YY     0 **** 1YY A 714
