@<TRIPOS>MOLECULE
1o8c_NDP_1_ligand
   73    77     1     0     0
SMALL
NO_CHARGES


@<TRIPOS>ATOM
     1 PA          35.6400   114.9660     5.9040 P.3          1 NDP1325   0.0000
     2 O1A         35.8170   116.4110     6.1540 O.co2        1 NDP1325   0.0000
     3 O2A         34.1890   114.5430     5.6530 O.co2        1 NDP1325  -1.0000
     4 O5B         36.1350   114.1600     7.1720 O.3          1 NDP1325   0.0000
     5 C5B         37.4370   114.3400     7.6610 C.3          1 NDP1325   0.0000
     6 C4B         37.3430   114.2650     9.1670 C.3          1 NDP1325   0.0000
     7 O4B         38.5780   114.6470     9.7240 O.3          1 NDP1325   0.0000
     8 C3B         36.2940   115.1990     9.7800 C.3          1 NDP1325   0.0000
     9 O3B         34.9850   114.6790     9.8150 O.3          1 NDP1325   0.0000
    10 C2B         36.8600   115.3910    11.1640 C.3          1 NDP1325   0.0000
    11 O2B         36.3560   114.3880    12.0060 O.3          1 NDP1325   0.0000
    12 C1B         38.3620   115.2480    10.9710 C.3          1 NDP1325   0.0000
    13 N9A         39.0390   116.5470    10.9380 N.pl3        1 NDP1325   0.0000
    14 C8A         38.6310   117.6880    10.3050 C.2          1 NDP1325   0.0000
    15 N7A         39.5410   118.6550    10.5250 N.2          1 NDP1325   0.0000
    16 C5A         40.5310   118.1490    11.2810 C.ar         1 NDP1325   0.0000
    17 C6A         41.6930   118.7190    11.7890 C.ar         1 NDP1325   0.0000
    18 N6A         41.9200   120.0140    11.6020 N.pl3        1 NDP1325   0.0000
    19 N1A         42.5420   117.9590    12.5530 N.ar         1 NDP1325   0.0000
    20 C2A         42.2190   116.6350    12.7890 C.ar         1 NDP1325   0.0000
    21 N3A         41.0660   116.0720    12.2960 N.ar         1 NDP1325   0.0000
    22 C4A         40.2310   116.8240    11.5490 C.ar         1 NDP1325   0.0000
    23 O3          36.6000   114.6180     4.6690 O.3          1 NDP1325   0.0000
    24 PN          36.5160   113.2620     3.8170 P.3          1 NDP1325   0.0000
    25 O1N         35.9650   112.2130     4.6830 O.co2        1 NDP1325   0.0000
    26 O2N         35.8810   113.4810     2.5080 O.co2        1 NDP1325  -1.0000
    27 O5D         38.0500   112.9400     3.5120 O.3          1 NDP1325   0.0000
    28 C5D         39.0420   112.7940     4.5100 C.3          1 NDP1325   0.0000
    29 C4D         40.4110   112.6490     3.8520 C.3          1 NDP1325   0.0000
    30 O4D         40.3760   111.6050     2.8800 O.3          1 NDP1325   0.0000
    31 C3D         40.7700   113.9260     3.1090 C.3          1 NDP1325   0.0000
    32 O3D         42.0380   114.4050     3.4660 O.3          1 NDP1325   0.0000
    33 C2D         40.7620   113.5440     1.6420 C.3          1 NDP1325   0.0000
    34 O2D         41.7800   114.2190     0.9370 O.3          1 NDP1325   0.0000
    35 C1D         41.0320   112.0560     1.7150 C.3          1 NDP1325   0.0000
    36 N1N         40.6540   111.3770     0.4910 N.ar         1 NDP1325   1.0000
    37 C2N         41.6330   111.2270    -0.4480 C.ar         1 NDP1325   0.0000
    38 C3N         41.3930   110.5860    -1.6500 C.ar         1 NDP1325   0.0000
    39 C7N         42.4930   110.4190    -2.6660 C.2          1 NDP1325   0.0000
    40 O7N         42.2080   109.7840    -3.8770 O.2          1 NDP1325   0.0000
    41 N7N         43.7290   110.8700    -2.4700 N.am         1 NDP1325   0.0000
    42 C4N         40.1090   110.1100    -1.8790 C.ar         1 NDP1325   0.0000
    43 C5N         39.0510   110.2930    -0.8350 C.ar         1 NDP1325   0.0000
    44 C6N         39.3840   110.9330     0.3350 C.ar         1 NDP1325   0.0000
    45 P2B         36.2150   114.5660    13.6000 P.3          1 NDP1325   0.0000
    46 O1X         35.5190   113.3570    14.1050 O.co2        1 NDP1325   0.0000
    47 O2X         37.5910   114.7100    14.2710 O.co2        1 NDP1325  -1.0000
    48 O3X         35.3870   115.8280    13.8780 O.co2        1 NDP1325  -1.0000
    49 H5B1        37.7911   115.2323     7.3809 H            1 NDP1325   0.0000
    50 H5B2        38.0384   113.6194     7.3160 H            1 NDP1325   0.0000
    51 H4B         37.1399   113.3235     9.4358 H            1 NDP1325   0.0000
    52 H3B         36.2957   116.0720     9.2923 H            1 NDP1325   0.0000
    53 H5          34.8445   114.1874    10.6744 H            1 NDP1325   0.0000
    54 H2B         36.6326   116.2984    11.5175 H            1 NDP1325   0.0000
    55 H1B         38.7480   114.6789    11.6970 H            1 NDP1325   0.0000
    56 H8A         37.7940   117.7878     9.7670 H            1 NDP1325   0.0000
    57 H6A1        42.7529   120.4330    11.9636 H            1 NDP1325   0.0000
    58 H6A2        41.2580   120.5702    11.0996 H            1 NDP1325   0.0000
    59 H2A         42.8412   116.0720    13.3331 H            1 NDP1325   0.0000
    60 H5D1        38.8472   111.9795     5.0564 H            1 NDP1325   0.0000
    61 H5D2        39.0405   113.6004     5.1014 H            1 NDP1325   0.0000
    62 H4D         41.1043   112.4492     4.5444 H            1 NDP1325   0.0000
    63 H3D         40.0789   114.6276     3.2827 H            1 NDP1325   0.0000
    64 H16         42.6222   114.4383     2.6551 H            1 NDP1325   0.0000
    65 H2D         39.8673   113.7233     1.2329 H            1 NDP1325   0.0000
    66 H18         41.3715   114.7778     0.2153 H            1 NDP1325   0.0000
    67 H1D         42.0150   111.9280     1.8466 H            1 NDP1325   0.0000
    68 H2N         42.5463   111.5894    -0.2625 H            1 NDP1325   0.0000
    69 H7N1        44.4274   110.7363    -3.1731 H            1 NDP1325   0.0000
    70 H7N2        43.9598   111.3428    -1.6196 H            1 NDP1325   0.0000
    71 H4N         39.8914   109.6466    -2.7380 H            1 NDP1325   0.0000
    72 H5N         38.1215   109.9565    -0.9860 H            1 NDP1325   0.0000
    73 H6N         38.7035   111.0678     1.0552 H            1 NDP1325   0.0000
@<TRIPOS>BOND
     1    1    2      ar
     2    1    3      ar
     3    1    4       1
     4    1   23       1
     5    4    5       1
     6    5    6       1
     7    6    7       1
     8    6    8       1
     9    7   12       1
    10    8    9       1
    11    8   10       1
    12   10   11       1
    13   10   12       1
    14   11   45       1
    15   12   13       1
    16   13   14       1
    17   13   22       1
    18   14   15       2
    19   15   16       1
    20   16   17      ar
    21   16   22      ar
    22   17   18       1
    23   17   19      ar
    24   19   20      ar
    25   20   21      ar
    26   21   22      ar
    27   23   24       1
    28   24   25      ar
    29   24   26      ar
    30   24   27       1
    31   27   28       1
    32   28   29       1
    33   29   30       1
    34   29   31       1
    35   30   35       1
    36   31   32       1
    37   31   33       1
    38   33   34       1
    39   33   35       1
    40   35   36       1
    41   36   37      ar
    42   36   44      ar
    43   37   38      ar
    44   38   39       1
    45   38   42      ar
    46   39   40       2
    47   39   41      am
    48   42   43      ar
    49   43   44      ar
    50   45   46      ar
    51   45   47      ar
    52   45   48      ar
    53   43   72       1
    54    5   49       1
    55    5   50       1
    56    6   51       1
    57    8   52       1
    58    9   53       1
    59   10   54       1
    60   12   55       1
    61   14   56       1
    62   18   57       1
    63   18   58       1
    64   20   59       1
    65   44   73       1
    66   28   60       1
    67   28   61       1
    68   29   62       1
    69   31   63       1
    70   32   64       1
    71   33   65       1
    72   34   66       1
    73   35   67       1
    74   37   68       1
    75   41   69       1
    76   41   70       1
    77   42   71       1
@<TRIPOS>SUBSTRUCTURE
     1 NDP1325     1 GROUP             4 A     NDP     0 **** NDP A1325
