@<TRIPOS>MOLECULE
3ej0_11X_1_ligand
   26    27     1     0     0
SMALL
NO_CHARGES


@<TRIPOS>ATOM
     1 N1          11.7460   -23.2570   -29.0760 N.ar         1 11X176   0.0000
     2 C10          5.1910   -23.8870   -27.4260 C.ar         1 11X176   0.0000
     3 C11          3.9830   -23.2190   -27.3530 C.ar         1 11X176   0.0000
     4 C9           5.9740   -23.7960   -28.5660 C.ar         1 11X176   0.0000
     5 C14          5.5670   -23.0270   -29.6430 C.ar         1 11X176   0.0000
     6 C12          3.5710   -22.4630   -28.4370 C.ar         1 11X176   0.0000
     7 C13          4.3560   -22.3600   -29.5800 C.ar         1 11X176   0.0000
     8 C2          10.6070   -23.6860   -29.6590 C.ar         1 11X176   0.0000
     9 C4           9.3430   -23.0960   -27.7070 C.ar         1 11X176   0.0000
    10 C5          10.5330   -22.6630   -27.1370 C.ar         1 11X176   0.0000
    11 C6          11.7290   -22.7530   -27.8390 C.ar         1 11X176   0.0000
    12 C7           8.1170   -24.0920   -29.6560 C.3          1 11X176   0.0000
    13 C3           9.3870   -23.6100   -28.9920 C.ar         1 11X176   0.0000
    14 N8           7.1490   -24.4480   -28.6280 N.pl3        1 11X176   0.0000
    15 H1           5.5016   -24.4389   -26.6521 H            1 11X176   0.0000
    16 H2           3.4165   -23.2808   -26.5313 H            1 11X176   0.0000
    17 H3           6.1420   -22.9543   -30.4579 H            1 11X176   0.0000
    18 H4           2.6945   -21.9832   -28.3974 H            1 11X176   0.0000
    19 H5           4.0469   -21.8063   -30.3532 H            1 11X176   0.0000
    20 H6          10.6396   -24.0642   -30.5841 H            1 11X176   0.0000
    21 H7           8.4803   -23.0383   -27.2046 H            1 11X176   0.0000
    22 H8          10.5293   -22.2826   -26.2122 H            1 11X176   0.0000
    23 H9          12.5796   -22.4395   -27.4168 H            1 11X176   0.0000
    24 H10          8.3170   -24.8933   -30.2199 H            1 11X176   0.0000
    25 H11          7.7427   -23.3646   -30.2312 H            1 11X176   0.0000
    26 H12          7.3566   -25.1733   -27.9716 H            1 11X176   0.0000
@<TRIPOS>BOND
     1    1    8      ar
     2    1   11      ar
     3    2    3      ar
     4    2    4      ar
     5    3    6      ar
     6    4    5      ar
     7    4   14       1
     8    5    7      ar
     9    6    7      ar
    10    8   13      ar
    11    9   10      ar
    12    9   13      ar
    13   10   11      ar
    14   12   13       1
    15   12   14       1
    16    2   15       1
    17    3   16       1
    18    5   17       1
    19    6   18       1
    20    7   19       1
    21    8   20       1
    22    9   21       1
    23   10   22       1
    24   11   23       1
    25   12   24       1
    26   12   25       1
    27   14   26       1
@<TRIPOS>SUBSTRUCTURE
     1 11X176      1 GROUP             4 A     11X     0 **** 11X A 176
