@<TRIPOS>MOLECULE
2ggs_NDP_1_ligand
   73    77     1     0     0
SMALL
NO_CHARGES


@<TRIPOS>ATOM
     1 PA          -9.8710    32.8900    31.8990 P.3          1 NDP900   0.0000
     2 O1A         -8.8750    32.0340    32.5630 O.co2        1 NDP900   0.0000
     3 O2A        -11.1420    33.0310    32.6490 O.co2        1 NDP900  -1.0000
     4 O5B        -10.2130    32.3780    30.4440 O.3          1 NDP900   0.0000
     5 C5B         -9.2160    31.7800    29.6350 C.3          1 NDP900   0.0000
     6 C4B         -9.8960    31.4690    28.3270 C.3          1 NDP900   0.0000
     7 O4B         -8.8900    30.9990    27.4260 O.3          1 NDP900   0.0000
     8 C3B        -10.9980    30.4290    28.4500 C.3          1 NDP900   0.0000
     9 O3B        -12.0730    30.8220    27.6400 O.3          1 NDP900   0.0000
    10 C2B        -10.3130    29.1890    27.8610 C.3          1 NDP900   0.0000
    11 O2B        -11.2900    28.3730    27.2890 O.3          1 NDP900   0.0000
    12 C1B         -9.4410    29.8490    26.8020 C.3          1 NDP900   0.0000
    13 N9A         -8.3540    28.9600    26.3800 N.pl3        1 NDP900   0.0000
    14 C8A         -7.2680    28.5820    27.1100 C.2          1 NDP900   0.0000
    15 N7A         -6.5200    27.7290    26.3530 N.2          1 NDP900   0.0000
    16 C5A         -7.1400    27.5800    25.1700 C.ar         1 NDP900   0.0000
    17 C6A         -6.8380    26.8220    24.0320 C.ar         1 NDP900   0.0000
    18 N6A         -5.7800    25.9640    24.0390 N.pl3        1 NDP900   0.0000
    19 N1A         -7.7250    26.8860    22.9920 N.ar         1 NDP900   0.0000
    20 C2A         -8.8750    27.6660    23.0030 C.ar         1 NDP900   0.0000
    21 N3A         -9.1700    28.3930    24.1310 N.ar         1 NDP900   0.0000
    22 C4A         -8.3160    28.3340    25.1790 C.ar         1 NDP900   0.0000
    23 O3          -9.0580    34.2690    31.6370 O.3          1 NDP900   0.0000
    24 PN          -9.6330    35.7800    31.7680 P.3          1 NDP900   0.0000
    25 O1N        -10.9370    35.9690    31.1730 O.co2        1 NDP900   0.0000
    26 O2N         -9.3840    36.0920    33.1940 O.co2        1 NDP900  -1.0000
    27 O5D         -8.5010    36.5500    30.9400 O.3          1 NDP900   0.0000
    28 C5D         -8.7970    37.1060    29.6630 C.3          1 NDP900   0.0000
    29 C4D         -7.5610    37.7260    29.0240 C.3          1 NDP900   0.0000
    30 O4D         -7.0930    38.7490    29.8720 O.3          1 NDP900   0.0000
    31 C3D         -6.3940    36.7620    28.8290 C.3          1 NDP900   0.0000
    32 O3D         -5.7580    37.2200    27.6660 O.3          1 NDP900   0.0000
    33 C2D         -5.5140    37.0060    30.0300 C.3          1 NDP900   0.0000
    34 O2D         -4.1750    36.6350    29.7500 O.3          1 NDP900   0.0000
    35 C1D         -5.7140    38.5340    30.1820 C.3          1 NDP900   0.0000
    36 N1N         -5.4180    38.9630    31.5540 N.ar         1 NDP900   1.0000
    37 C2N         -5.9960    38.2650    32.5800 C.ar         1 NDP900   0.0000
    38 C3N         -5.9290    38.7120    33.8920 C.ar         1 NDP900   0.0000
    39 C7N         -6.5850    37.9060    34.9660 C.2          1 NDP900   0.0000
    40 O7N         -6.3200    38.2270    36.3120 O.2          1 NDP900   0.0000
    41 N7N         -7.3900    36.8970    34.6400 N.am         1 NDP900   0.0000
    42 C4N         -5.1920    39.9940    34.2340 C.ar         1 NDP900   0.0000
    43 C5N         -4.5570    40.6770    33.0460 C.ar         1 NDP900   0.0000
    44 C6N         -4.7150    40.1320    31.7660 C.ar         1 NDP900   0.0000
    45 P2B        -11.8290    26.9910    28.0330 P.3          1 NDP900   0.0000
    46 O1X        -13.1000    26.7460    27.3250 O.co2        1 NDP900   0.0000
    47 O2X        -11.9830    27.2540    29.4930 O.co2        1 NDP900  -1.0000
    48 O3X        -10.7970    25.8500    27.8400 O.co2        1 NDP900  -1.0000
    49 H5B1        -8.8763    30.9414    30.0609 H            1 NDP900   0.0000
    50 H5B2        -8.4552    32.4130    29.4920 H            1 NDP900   0.0000
    51 H4B        -10.2886    32.3122    27.9598 H            1 NDP900   0.0000
    52 H3B        -11.2763    30.2880    29.4001 H            1 NDP900   0.0000
    53 H5         -12.8074    30.1469    27.7101 H            1 NDP900   0.0000
    54 H2B         -9.7693    28.7009    28.5438 H            1 NDP900   0.0000
    55 H1B         -9.9958    30.1154    26.0138 H            1 NDP900   0.0000
    56 H8A         -7.0556    28.8789    28.0410 H            1 NDP900   0.0000
    57 H6A1        -5.5682    25.4247    23.2239 H            1 NDP900   0.0000
    58 H6A2        -5.2151    25.8734    24.8592 H            1 NDP900   0.0000
    59 H2A         -9.4766    27.6976    22.2049 H            1 NDP900   0.0000
    60 H5D1        -9.4964    37.8126    29.7704 H            1 NDP900   0.0000
    61 H5D2        -9.1432    36.3824    29.0659 H            1 NDP900   0.0000
    62 H4D         -7.8116    38.1212    28.1402 H            1 NDP900   0.0000
    63 H3D         -6.6899    35.8096    28.7560 H            1 NDP900   0.0000
    64 H16         -5.8818    38.2091    27.5858 H            1 NDP900   0.0000
    65 H2D         -5.8599    36.5186    30.8317 H            1 NDP900   0.0000
    66 H18         -4.1405    35.6637    29.5148 H            1 NDP900   0.0000
    67 H1D         -5.1329    39.0251    29.5331 H            1 NDP900   0.0000
    68 H2N         -6.4782    37.4123    32.3791 H            1 NDP900   0.0000
    69 H7N1        -7.8299    36.3565    35.3572 H            1 NDP900   0.0000
    70 H7N2        -7.5548    36.6796    33.6779 H            1 NDP900   0.0000
    71 H4N         -5.1321    40.3549    35.1647 H            1 NDP900   0.0000
    72 H5N         -4.0260    41.5148    33.1731 H            1 NDP900   0.0000
    73 H6N         -4.3072    40.6027    30.9836 H            1 NDP900   0.0000
@<TRIPOS>BOND
     1    1    2      ar
     2    1    3      ar
     3    1    4       1
     4    1   23       1
     5    4    5       1
     6    5    6       1
     7    6    7       1
     8    6    8       1
     9    7   12       1
    10    8    9       1
    11    8   10       1
    12   10   11       1
    13   10   12       1
    14   11   45       1
    15   12   13       1
    16   13   14       1
    17   13   22       1
    18   14   15       2
    19   15   16       1
    20   16   17      ar
    21   16   22      ar
    22   17   18       1
    23   17   19      ar
    24   19   20      ar
    25   20   21      ar
    26   21   22      ar
    27   23   24       1
    28   24   25      ar
    29   24   26      ar
    30   24   27       1
    31   27   28       1
    32   28   29       1
    33   29   30       1
    34   29   31       1
    35   30   35       1
    36   31   32       1
    37   31   33       1
    38   33   34       1
    39   33   35       1
    40   35   36       1
    41   36   37      ar
    42   36   44      ar
    43   37   38      ar
    44   38   39       1
    45   38   42      ar
    46   39   40       2
    47   39   41      am
    48   42   43      ar
    49   43   44      ar
    50   45   46      ar
    51   45   47      ar
    52   45   48      ar
    53   43   72       1
    54    5   49       1
    55    5   50       1
    56    6   51       1
    57    8   52       1
    58    9   53       1
    59   10   54       1
    60   12   55       1
    61   14   56       1
    62   18   57       1
    63   18   58       1
    64   20   59       1
    65   44   73       1
    66   28   60       1
    67   28   61       1
    68   29   62       1
    69   31   63       1
    70   32   64       1
    71   33   65       1
    72   34   66       1
    73   35   67       1
    74   37   68       1
    75   41   69       1
    76   41   70       1
    77   42   71       1
@<TRIPOS>SUBSTRUCTURE
     1 NDP900      1 GROUP             4 A     NDP     0 **** NDP A 900
