@<TRIPOS>MOLECULE
3o9z_NAD_4_ligand
   70    74     1     0     0
SMALL
NO_CHARGES


@<TRIPOS>ATOM
     1 PA          48.4250    46.6420    48.9980 P.3          1 NAD311   0.0000
     2 O1A         49.6230    47.4310    48.5060 O.co2        1 NAD311   0.0000
     3 O2A         47.0160    47.4020    49.0580 O.co2        1 NAD311  -1.0000
     4 O5B         48.5030    45.4330    47.9370 O.3          1 NAD311   0.0000
     5 C5B         47.1910    45.2090    47.4500 C.3          1 NAD311   0.0000
     6 C4B         47.0590    44.1570    46.3550 C.3          1 NAD311   0.0000
     7 O4B         46.1580    43.0860    46.6790 O.3          1 NAD311   0.0000
     8 C3B         46.1550    45.2410    45.7280 C.3          1 NAD311   0.0000
     9 O3B         46.5300    45.6110    44.3900 O.3          1 NAD311   0.0000
    10 C2B         44.7350    44.6750    45.5540 C.3          1 NAD311   0.0000
    11 O2B         44.3960    45.0340    44.2020 O.3          1 NAD311   0.0000
    12 C1B         45.0550    43.1660    45.7410 C.3          1 NAD311   0.0000
    13 N9A         43.8320    42.3570    45.8730 N.pl3        1 NAD311   0.0000
    14 C8A         42.5760    42.7330    46.2960 C.2          1 NAD311   0.0000
    15 N7A         41.7340    41.7510    46.0650 N.2          1 NAD311   0.0000
    16 C5A         42.4060    40.6520    45.6110 C.ar         1 NAD311   0.0000
    17 C6A         42.0210    39.3420    45.2040 C.ar         1 NAD311   0.0000
    18 N6A         40.7360    38.8720    45.4190 N.pl3        1 NAD311   0.0000
    19 N1A         42.9970    38.5360    44.7790 N.ar         1 NAD311   0.0000
    20 C2A         44.2670    38.9330    44.7710 C.ar         1 NAD311   0.0000
    21 N3A         44.6390    40.1770    44.9840 N.ar         1 NAD311   0.0000
    22 C4A         43.7420    41.0540    45.4380 C.ar         1 NAD311   0.0000
    23 O3          48.7670    46.1510    50.4900 O.3          1 NAD311   0.0000
    24 PN          50.0900    45.2820    50.7860 P.3          1 NAD311   0.0000
    25 O1N         50.9840    46.0960    51.7570 O.co2        1 NAD311   0.0000
    26 O2N         50.8430    44.7610    49.5450 O.co2        1 NAD311  -1.0000
    27 O5D         49.6590    44.1410    51.8570 O.3          1 NAD311   0.0000
    28 C5D         49.8300    42.8850    51.2200 C.3          1 NAD311   0.0000
    29 C4D         49.7960    41.7560    52.2480 C.3          1 NAD311   0.0000
    30 O4D         51.1470    41.7210    52.7180 O.3          1 NAD311   0.0000
    31 C3D         48.8750    41.9750    53.4770 C.3          1 NAD311   0.0000
    32 O3D         48.5000    40.7040    54.0270 O.3          1 NAD311   0.0000
    33 C2D         49.7990    42.6560    54.5120 C.3          1 NAD311   0.0000
    34 O2D         49.4650    42.3340    55.8740 O.3          1 NAD311   0.0000
    35 C1D         51.1430    41.9880    54.1360 C.3          1 NAD311   0.0000
    36 N1N         52.2970    42.8490    54.3920 N.ar         1 NAD311   1.0000
    37 C2N         53.3350    42.2650    54.9620 C.ar         1 NAD311   0.0000
    38 C3N         54.4740    43.0160    55.2420 C.ar         1 NAD311   0.0000
    39 C7N         55.6350    42.3600    55.8780 C.2          1 NAD311   0.0000
    40 O7N         55.7840    41.1460    55.8440 O.2          1 NAD311   0.0000
    41 N7N         56.5480    43.1590    56.4540 N.am         1 NAD311   0.0000
    42 C4N         54.5110    44.3790    54.8970 C.ar         1 NAD311   0.0000
    43 C5N         53.3950    44.9260    54.2850 C.ar         1 NAD311   0.0000
    44 C6N         52.2940    44.1230    54.0340 C.ar         1 NAD311   0.0000
    45 H5B1        46.8470    46.0747    47.0865 H            1 NAD311   0.0000
    46 H5B2        46.6226    44.9219    48.2211 H            1 NAD311   0.0000
    47 H4B         47.8908    43.9150    45.8554 H            1 NAD311   0.0000
    48 H3B         46.1324    46.0506    46.3145 H            1 NAD311   0.0000
    49 H5          46.9514    44.8275    43.9332 H            1 NAD311   0.0000
    50 H2B         44.0860    45.0262    46.2289 H            1 NAD311   0.0000
    51 H7          45.0520    44.6181    43.5722 H            1 NAD311   0.0000
    52 H1B         45.4490    42.8833    44.8664 H            1 NAD311   0.0000
    53 H8A         42.3426    43.6119    46.7120 H            1 NAD311   0.0000
    54 H6A1        40.4855    37.9493    45.1258 H            1 NAD311   0.0000
    55 H6A2        40.0587    39.4553    45.8674 H            1 NAD311   0.0000
    56 H2A         44.9758    38.2502    44.5938 H            1 NAD311   0.0000
    57 H5D1        50.7109    42.8730    50.7468 H            1 NAD311   0.0000
    58 H5D2        49.0937    42.7490    50.5572 H            1 NAD311   0.0000
    59 H4D         49.5677    40.8920    51.7994 H            1 NAD311   0.0000
    60 H3D         48.0792    42.5384    53.2551 H            1 NAD311   0.0000
    61 H17         47.9064    40.8457    54.8192 H            1 NAD311   0.0000
    62 H2D         49.8339    43.6454    54.3714 H            1 NAD311   0.0000
    63 H19         49.5376    41.3460    56.0104 H            1 NAD311   0.0000
    64 H1D         51.2449    41.1303    54.6400 H            1 NAD311   0.0000
    65 H2N         53.3036    41.2920    55.1906 H            1 NAD311   0.0000
    66 H7N1        57.3515    42.7617    56.8974 H            1 NAD311   0.0000
    67 H7N2        56.4243    44.1512    56.4395 H            1 NAD311   0.0000
    68 H4N         55.3188    44.9367    55.0878 H            1 NAD311   0.0000
    69 H5N         53.3841    45.8920    54.0266 H            1 NAD311   0.0000
    70 H6N         51.4914    44.5089    53.5791 H            1 NAD311   0.0000
@<TRIPOS>BOND
     1    1    2      ar
     2    1    3      ar
     3    1    4       1
     4    1   23       1
     5    4    5       1
     6    5    6       1
     7    6    7       1
     8    6    8       1
     9    7   12       1
    10    8    9       1
    11    8   10       1
    12   10   11       1
    13   10   12       1
    14   12   13       1
    15   13   14       1
    16   13   22       1
    17   14   15       2
    18   15   16       1
    19   16   17      ar
    20   16   22      ar
    21   17   18       1
    22   17   19      ar
    23   19   20      ar
    24   20   21      ar
    25   21   22      ar
    26   23   24       1
    27   24   25      ar
    28   24   26      ar
    29   24   27       1
    30   27   28       1
    31   28   29       1
    32   29   30       1
    33   29   31       1
    34   30   35       1
    35   31   32       1
    36   31   33       1
    37   33   34       1
    38   33   35       1
    39   35   36       1
    40   36   37      ar
    41   36   44      ar
    42   37   38      ar
    43   38   39       1
    44   38   42      ar
    45   39   40       2
    46   39   41      am
    47   42   43      ar
    48   43   44      ar
    49   44   70       1
    50    5   45       1
    51    5   46       1
    52    6   47       1
    53    8   48       1
    54    9   49       1
    55   10   50       1
    56   11   51       1
    57   12   52       1
    58   14   53       1
    59   18   54       1
    60   18   55       1
    61   20   56       1
    62   43   69       1
    63   28   57       1
    64   28   58       1
    65   29   59       1
    66   31   60       1
    67   32   61       1
    68   33   62       1
    69   34   63       1
    70   35   64       1
    71   37   65       1
    72   41   66       1
    73   41   67       1
    74   42   68       1
@<TRIPOS>SUBSTRUCTURE
     1 NAD311      1 GROUP             4 D     NAD     0 **** NAD D 311
