@<TRIPOS>MOLECULE
2d29_FAD_2_ligand
   85    90     1     0     0
SMALL
NO_CHARGES


@<TRIPOS>ATOM
     1 PA          76.5210    73.1840    46.2890 P.3          1 FAD2001   0.0000
     2 O1A         76.5300    74.6230    46.6330 O.co2        1 FAD2001   0.0000
     3 O2A         77.7460    72.5860    45.7110 O.co2        1 FAD2001  -1.0000
     4 O5B         76.0720    72.3330    47.5800 O.3          1 FAD2001   0.0000
     5 C5B         76.0010    70.9080    47.4740 C.3          1 FAD2001   0.0000
     6 C4B         75.5190    70.2820    48.7840 C.3          1 FAD2001   0.0000
     7 O4B         76.3840    70.7650    49.8280 O.3          1 FAD2001   0.0000
     8 C3B         74.1060    70.7630    49.1260 C.3          1 FAD2001   0.0000
     9 O3B         73.4190    69.7660    49.8870 O.3          1 FAD2001   0.0000
    10 C2B         74.3950    71.9850    49.9960 C.3          1 FAD2001   0.0000
    11 O2B         73.2880    72.2070    50.8740 O.3          1 FAD2001   0.0000
    12 C1B         75.5620    71.4220    50.8060 C.3          1 FAD2001   0.0000
    13 N9A         76.3160    72.4950    51.4930 N.pl3        1 FAD2001   0.0000
    14 C8A         77.0670    73.4280    50.9120 C.2          1 FAD2001   0.0000
    15 N7A         77.5990    74.2190    51.8410 N.2          1 FAD2001   0.0000
    16 C5A         77.1820    73.7860    53.0280 C.ar         1 FAD2001   0.0000
    17 C6A         77.3890    74.1890    54.3410 C.ar         1 FAD2001   0.0000
    18 N6A         78.1480    75.2470    54.6120 N.pl3        1 FAD2001   0.0000
    19 N1A         76.8000    73.5040    55.3330 N.ar         1 FAD2001   1.0000
    20 C2A         76.0270    72.4600    55.0870 C.ar         1 FAD2001   0.0000
    21 N3A         75.8060    72.0500    53.8490 N.ar         1 FAD2001   0.0000
    22 C4A         76.3640    72.6860    52.8070 C.ar         1 FAD2001   0.0000
    23 N1          71.0210    79.8940    40.0110 N.2          1 FAD2001   0.0000
    24 C2          70.9260    81.2400    39.6330 C.2          1 FAD2001   0.0000
    25 O2          71.8400    82.0250    39.8790 O.2          1 FAD2001   0.0000
    26 N3          69.7950    81.6730    38.9280 N.pl3        1 FAD2001   0.0000
    27 C4          68.7810    80.7660    38.5960 C.2          1 FAD2001   0.0000
    28 O4          67.8010    81.1530    37.9600 O.2          1 FAD2001   0.0000
    29 C4X         68.8890    79.4280    38.9610 C.2          1 FAD2001   0.0000
    30 N5          67.9070    78.5050    38.5760 N.2          1 FAD2001   0.0000
    31 C5X         68.0260    77.1500    38.9130 C.ar         1 FAD2001   0.0000
    32 C6          67.1200    76.2250    38.4030 C.ar         1 FAD2001   0.0000
    33 C7          67.3160    74.8620    38.6060 C.ar         1 FAD2001   0.0000
    34 C7M         66.3360    73.8670    37.9800 C.3          1 FAD2001   0.0000
    35 C8          68.4180    74.4230    39.3370 C.ar         1 FAD2001   0.0000
    36 C8M         68.6830    72.9320    39.5550 C.3          1 FAD2001   0.0000
    37 C9          69.3150    75.3520    39.8560 C.ar         1 FAD2001   0.0000
    38 C9A         69.1300    76.7160    39.6430 C.ar         1 FAD2001   0.0000
    39 N10         70.0940    77.6470    40.0640 N.pl3        1 FAD2001   0.0000
    40 C10         70.0030    78.9920    39.6740 C.2          1 FAD2001   0.0000
    41 C1'         71.2740    77.1980    40.8380 C.3          1 FAD2001   0.0000
    42 C2'         71.0150    77.1050    42.3440 C.3          1 FAD2001   0.0000
    43 O2'         70.8100    78.4140    42.8820 O.3          1 FAD2001   0.0000
    44 C3'         72.2210    76.4420    43.0130 C.3          1 FAD2001   0.0000
    45 O3'         72.2510    75.0680    42.6170 O.3          1 FAD2001   0.0000
    46 C4'         72.1760    76.5100    44.5420 C.3          1 FAD2001   0.0000
    47 O4'         72.1020    77.8740    44.9680 O.3          1 FAD2001   0.0000
    48 C5'         73.4360    75.8690    45.1270 C.3          1 FAD2001   0.0000
    49 O5'         73.5180    74.5030    44.7160 O.3          1 FAD2001   0.0000
    50 P           74.8610    73.8640    44.0970 P.3          1 FAD2001   0.0000
    51 O1P         74.4360    73.0580    42.9300 O.co2        1 FAD2001   0.0000
    52 O2P         75.8880    74.9100    43.8930 O.co2        1 FAD2001  -1.0000
    53 O3P         75.3130    72.8630    45.2740 O.3          1 FAD2001   0.0000
    54 H5B1        76.9093    70.5510    47.2561 H            1 FAD2001   0.0000
    55 H5B2        75.3635    70.6662    46.7424 H            1 FAD2001   0.0000
    56 H4B         75.5502    69.2838    48.7319 H            1 FAD2001   0.0000
    57 H3B         73.5950    71.0121    48.3033 H            1 FAD2001   0.0000
    58 H5          74.0797    69.2452    50.4276 H            1 FAD2001   0.0000
    59 H2B         74.6419    72.7951    49.4642 H            1 FAD2001   0.0000
    60 H7          72.5884    71.5113    50.7109 H            1 FAD2001   0.0000
    61 H1B         75.2266    70.7575    51.4737 H            1 FAD2001   0.0000
    62 H8A         77.2099    73.5206    49.9266 H            1 FAD2001   0.0000
    63 H6A1        78.2914    75.5297    55.5604 H            1 FAD2001   0.0000
    64 H6A2        78.5753    75.7597    53.8673 H            1 FAD2001   0.0000
    65 H2A         75.6023    71.9722    55.8497 H            1 FAD2001   0.0000
    66 H13         69.7117    82.6331    38.6610 H            1 FAD2001   0.0000
    67 H14         66.3235    76.5414    37.8877 H            1 FAD2001   0.0000
    68 H7M1        66.6110    72.9350    38.2160 H            1 FAD2001   0.0000
    69 H7M2        65.4153    74.0414    38.3292 H            1 FAD2001   0.0000
    70 H7M3        66.3414    73.9745    36.9858 H            1 FAD2001   0.0000
    71 H8M1        69.5138    72.8172    40.0995 H            1 FAD2001   0.0000
    72 H8M2        67.9088    72.5230    40.0380 H            1 FAD2001   0.0000
    73 H8M3        68.7996    72.4813    38.6700 H            1 FAD2001   0.0000
    74 H21         70.1010    75.0367    40.3877 H            1 FAD2001   0.0000
    75 H1'1        72.0193    77.8467    40.6842 H            1 FAD2001   0.0000
    76 H1'2        71.5450    76.2942    40.5067 H            1 FAD2001   0.0000
    77 H2'         70.1996    76.5492    42.5059 H            1 FAD2001   0.0000
    78 H25         71.1201    78.4361    43.8324 H            1 FAD2001   0.0000
    79 H3'         73.0559    76.8898    42.6931 H            1 FAD2001   0.0000
    80 H27         72.6617    74.5200    43.3457 H            1 FAD2001   0.0000
    81 H4'         71.3708    76.0167    44.8713 H            1 FAD2001   0.0000
    82 H29         72.9060    78.3698    44.6397 H            1 FAD2001   0.0000
    83 H5'1        73.3987    75.9139    46.1253 H            1 FAD2001   0.0000
    84 H5'2        74.2420    76.3630    44.8010 H            1 FAD2001   0.0000
    85 H1A         76.9490    73.7895    56.2797 H            1 FAD2001   0.0000
@<TRIPOS>BOND
     1    1    2      ar
     2    1    3      ar
     3    1    4       1
     4    1   53       1
     5    4    5       1
     6    5    6       1
     7    6    7       1
     8    6    8       1
     9    7   12       1
    10    8    9       1
    11    8   10       1
    12   10   11       1
    13   10   12       1
    14   12   13       1
    15   13   14       1
    16   13   22       1
    17   14   15       2
    18   15   16       1
    19   16   17      ar
    20   16   22      ar
    21   17   18       1
    22   17   19      ar
    23   19   20      ar
    24   20   21      ar
    25   21   22      ar
    26   23   24       1
    27   23   40       2
    28   24   25       2
    29   24   26       1
    30   26   27       1
    31   27   28       2
    32   27   29       1
    33   29   30       2
    34   29   40       1
    35   30   31       1
    36   31   32      ar
    37   31   38      ar
    38   32   33      ar
    39   33   34       1
    40   33   35      ar
    41   35   36       1
    42   35   37      ar
    43   37   38      ar
    44   38   39       1
    45   39   40       1
    46   39   41       1
    47   41   42       1
    48   42   43       1
    49   42   44       1
    50   44   45       1
    51   44   46       1
    52   46   47       1
    53   46   48       1
    54   48   49       1
    55   49   50       1
    56   50   51      ar
    57   50   52      ar
    58   50   53       1
    59   48   84       1
    60    5   54       1
    61    5   55       1
    62    6   56       1
    63    8   57       1
    64    9   58       1
    65   10   59       1
    66   11   60       1
    67   12   61       1
    68   14   62       1
    69   18   63       1
    70   18   64       1
    71   20   65       1
    72   26   66       1
    73   32   67       1
    74   34   68       1
    75   34   69       1
    76   34   70       1
    77   36   71       1
    78   36   72       1
    79   36   73       1
    80   37   74       1
    81   41   75       1
    82   41   76       1
    83   42   77       1
    84   43   78       1
    85   44   79       1
    86   45   80       1
    87   46   81       1
    88   47   82       1
    89   48   83       1
    90   19   85       1
@<TRIPOS>SUBSTRUCTURE
     1 FAD2001     1 GROUP             4 B     FAD     0 **** FAD B2001
