@<TRIPOS>MOLECULE
1s3g_AP5_1_ligand
   81    86     1     0     0
SMALL
NO_CHARGES


@<TRIPOS>ATOM
     1 PA          -4.7680    47.4090     0.6390 P.3          1 AP5218   0.0000
     2 O1A         -5.6100    48.4820     0.0460 O.co2        1 AP5218   0.0000
     3 O2A         -3.3610    47.6490     1.0000 O.co2        1 AP5218  -1.0000
     4 O3A         -5.5850    46.8090     1.8740 O.3          1 AP5218   0.0000
     5 PB          -6.6730    47.1860     2.9180 P.3          1 AP5218   0.0000
     6 O1B         -7.9400    46.5690     2.5040 O.co2        1 AP5218   0.0000
     7 O2B         -6.6640    48.6570     2.8910 O.co2        1 AP5218  -1.0000
     8 O3B         -6.0410    46.4600     4.1270 O.3          1 AP5218   0.0000
     9 PG          -5.5190    46.9460     5.4960 P.3          1 AP5218   0.0000
    10 O1G         -4.1460    46.4710     5.7160 O.co2        1 AP5218   0.0000
    11 O2G         -5.3870    48.3800     5.4250 O.co2        1 AP5218  -1.0000
    12 O3G         -6.4030    46.4950     6.6130 O.3          1 AP5218   0.0000
    13 PD          -6.0620    46.0250     8.0190 P.3          1 AP5218   0.0000
    14 O1D         -7.3040    45.7320     8.7510 O.co2        1 AP5218   0.0000
    15 O2D         -5.2680    44.8110     7.9520 O.co2        1 AP5218  -1.0000
    16 O3D         -5.1350    46.8610     8.7970 O.3          1 AP5218   0.0000
    17 PE          -5.2620    48.2660     9.2370 P.3          1 AP5218   0.0000
    18 O1E         -4.1450    49.0860     8.8200 O.co2        1 AP5218   0.0000
    19 O2E         -6.5530    48.9060     8.9250 O.co2        1 AP5218  -1.0000
    20 O5F         -4.6920    46.1370    -0.3230 O.3          1 AP5218   0.0000
    21 C5F         -3.9310    44.9420     0.0270 C.3          1 AP5218   0.0000
    22 C4F         -3.0120    44.5520    -1.0970 C.3          1 AP5218   0.0000
    23 O4F         -3.7790    44.1790    -2.2390 O.3          1 AP5218   0.0000
    24 C3F         -2.0760    45.6640    -1.5700 C.3          1 AP5218   0.0000
    25 O3F         -0.7450    45.1040    -1.6990 O.3          1 AP5218   0.0000
    26 C2F         -2.6990    46.1520    -2.8900 C.3          1 AP5218   0.0000
    27 O2F         -1.6660    46.5760    -3.7640 O.3          1 AP5218   0.0000
    28 C1F         -3.4420    44.9460    -3.4080 C.3          1 AP5218   0.0000
    29 N9A         -4.7350    45.2140    -4.1000 N.pl3        1 AP5218   0.0000
    30 C8A         -5.6280    46.1850    -3.9020 C.2          1 AP5218   0.0000
    31 N7A         -6.6870    46.0800    -4.7280 N.2          1 AP5218   0.0000
    32 C5A         -6.4250    45.0030    -5.4530 C.ar         1 AP5218   0.0000
    33 C6A         -7.2250    44.4300    -6.4860 C.ar         1 AP5218   0.0000
    34 N6A         -8.3990    44.9190    -6.8840 N.pl3        1 AP5218   0.0000
    35 N1A         -6.6980    43.2990    -7.0710 N.ar         1 AP5218   0.0000
    36 C2A         -5.5080    42.7560    -6.7050 C.ar         1 AP5218   0.0000
    37 N3A         -4.7750    43.3240    -5.7210 N.ar         1 AP5218   0.0000
    38 C4A         -5.2040    44.4480    -5.0750 C.ar         1 AP5218   0.0000
    39 O5J         -5.2730    48.0850    10.8590 O.3          1 AP5218   0.0000
    40 C5J         -4.1580    47.3680    11.4830 C.3          1 AP5218   0.0000
    41 C4J         -4.5940    46.9770    12.8740 C.3          1 AP5218   0.0000
    42 O4J         -5.1320    48.1370    13.5430 O.3          1 AP5218   0.0000
    43 C3J         -5.7310    45.9890    12.9570 C.3          1 AP5218   0.0000
    44 O3J         -5.3240    44.6810    12.6490 O.3          1 AP5218   0.0000
    45 C2J         -6.2110    46.2530    14.3890 C.3          1 AP5218   0.0000
    46 O2J         -5.2680    45.6510    15.2910 O.3          1 AP5218   0.0000
    47 C1J         -6.1520    47.7810    14.4970 C.3          1 AP5218   0.0000
    48 N9B         -7.4550    48.4240    14.1290 N.pl3        1 AP5218   0.0000
    49 C8B         -7.7210    49.2130    13.0580 C.2          1 AP5218   0.0000
    50 N7B         -9.0010    49.5930    13.0920 N.2          1 AP5218   0.0000
    51 C5B         -9.5340    49.0480    14.1800 C.ar         1 AP5218   0.0000
    52 C6B        -10.8710    49.1510    14.6740 C.ar         1 AP5218   0.0000
    53 N6B        -11.8920    49.8430    14.1170 N.pl3        1 AP5218   0.0000
    54 N1B        -11.1340    48.4690    15.8440 N.ar         1 AP5218   0.0000
    55 C2B        -10.2030    47.7390    16.5060 C.ar         1 AP5218   0.0000
    56 N3B         -8.9520    47.6570    16.0230 N.ar         1 AP5218   0.0000
    57 C4B         -8.5790    48.2920    14.8700 C.ar         1 AP5218   0.0000
    58 H5F1        -4.5649    44.1903     0.2091 H            1 AP5218   0.0000
    59 H5F2        -3.3882    45.1263     0.8464 H            1 AP5218   0.0000
    60 H4F         -2.4621    43.7685    -0.8074 H            1 AP5218   0.0000
    61 H3F         -2.0682    46.4084    -0.9023 H            1 AP5218   0.0000
    62 H5          -0.1129    45.8146    -2.0082 H            1 AP5218   0.0000
    63 H2F         -3.3358    46.9031    -2.7159 H            1 AP5218   0.0000
    64 H7          -1.7974    47.5407    -3.9921 H            1 AP5218   0.0000
    65 H1F         -2.8439    44.4100    -4.0038 H            1 AP5218   0.0000
    66 H8A         -5.5233    46.9078    -3.2189 H            1 AP5218   0.0000
    67 H6A1        -8.9074    44.4652    -7.6158 H            1 AP5218   0.0000
    68 H6A2        -8.7715    45.7397    -6.4508 H            1 AP5218   0.0000
    69 H2A         -5.1730    41.9336    -7.1647 H            1 AP5218   0.0000
    70 H5J1        -3.3544    47.9612    11.5309 H            1 AP5218   0.0000
    71 H5J2        -3.9375    46.5502    10.9515 H            1 AP5218   0.0000
    72 H4J         -3.8089    46.6286    13.3860 H            1 AP5218   0.0000
    73 H3J         -6.4487    46.2650    12.3177 H            1 AP5218   0.0000
    74 H17         -4.3658    44.5603    12.9083 H            1 AP5218   0.0000
    75 H2J         -7.1375    45.9074    14.5380 H            1 AP5218   0.0000
    76 H19         -5.7334    44.9660    15.8515 H            1 AP5218   0.0000
    77 H1J         -5.8771    48.0544    15.4188 H            1 AP5218   0.0000
    78 H8B         -7.0609    49.4703    12.3523 H            1 AP5218   0.0000
    79 H6B1       -12.7919    49.8442    14.5532 H            1 AP5218   0.0000
    80 H6B2       -11.7466    50.3531    13.2693 H            1 AP5218   0.0000
    81 H2B        -10.4466    47.2631    17.3511 H            1 AP5218   0.0000
@<TRIPOS>BOND
     1    1    2      ar
     2    1    3      ar
     3    1    4       1
     4    1   20       1
     5    4    5       1
     6    5    6      ar
     7    5    7      ar
     8    5    8       1
     9    8    9       1
    10    9   10      ar
    11    9   11      ar
    12    9   12       1
    13   12   13       1
    14   13   14      ar
    15   13   15      ar
    16   13   16       1
    17   16   17       1
    18   17   18      ar
    19   17   19      ar
    20   17   39       1
    21   20   21       1
    22   21   22       1
    23   22   23       1
    24   22   24       1
    25   23   28       1
    26   24   25       1
    27   24   26       1
    28   26   27       1
    29   26   28       1
    30   28   29       1
    31   29   30       1
    32   29   38       1
    33   30   31       2
    34   31   32       1
    35   32   33      ar
    36   32   38      ar
    37   33   34       1
    38   33   35      ar
    39   35   36      ar
    40   36   37      ar
    41   37   38      ar
    42   39   40       1
    43   40   41       1
    44   41   42       1
    45   41   43       1
    46   42   47       1
    47   43   44       1
    48   43   45       1
    49   45   46       1
    50   45   47       1
    51   47   48       1
    52   48   49       1
    53   48   57       1
    54   49   50       2
    55   50   51       1
    56   51   52      ar
    57   51   57      ar
    58   52   53       1
    59   52   54      ar
    60   54   55      ar
    61   55   56      ar
    62   56   57      ar
    63   55   81       1
    64   53   80       1
    65   53   79       1
    66   49   78       1
    67   47   77       1
    68   21   58       1
    69   21   59       1
    70   22   60       1
    71   24   61       1
    72   25   62       1
    73   26   63       1
    74   27   64       1
    75   28   65       1
    76   30   66       1
    77   34   67       1
    78   34   68       1
    79   36   69       1
    80   40   70       1
    81   40   71       1
    82   41   72       1
    83   43   73       1
    84   44   74       1
    85   45   75       1
    86   46   76       1
@<TRIPOS>SUBSTRUCTURE
     1 AP5218      1 GROUP             4 A     AP5     0 **** AP5 A 218
