@<TRIPOS>MOLECULE
4emy_PLP_2_ligand
   25    25     1     0     0
SMALL
NO_CHARGES


@<TRIPOS>ATOM
     1 N1          46.4430    90.6240   172.0470 N.ar         1 PLP501   1.0000
     2 C2          46.5060    91.9330   171.5930 C.ar         1 PLP501   0.0000
     3 C2A         45.7270    93.0060   172.2910 C.3          1 PLP501   0.0000
     4 C3          47.2980    92.2530   170.4930 C.ar         1 PLP501   0.0000
     5 O3          47.3850    93.5350   170.0160 O.3          1 PLP501   0.0000
     6 C4          48.0110    91.2540   169.8500 C.ar         1 PLP501   0.0000
     7 C4A         48.3840    91.4900   168.4150 C.2          1 PLP501   0.0000
     8 O4A         49.4710    92.0040   168.1490 O.2          1 PLP501   0.0000
     9 C5          47.9490    89.9430   170.3180 C.ar         1 PLP501   0.0000
    10 C6          47.1580    89.6250   171.4190 C.ar         1 PLP501   0.0000
    11 C5A         48.7350    88.8810   169.5780 C.3          1 PLP501   0.0000
    12 O4P         49.1600    87.8460   170.4210 O.3          1 PLP501   0.0000
    13 P           49.9710    86.6430   169.7660 P.3          1 PLP501   0.0000
    14 O1P         50.8310    87.1490   168.6390 O.co2        1 PLP501   0.0000
    15 O2P         49.0480    85.5750   169.2560 O.co2        1 PLP501  -1.0000
    16 O3P         50.8250    86.1050   170.8780 O.co2        1 PLP501  -1.0000
    17 H2A1        45.8859    93.8825   171.8366 H            1 PLP501   0.0000
    18 H2A2        44.7522    92.7853   172.2579 H            1 PLP501   0.0000
    19 H2A3        46.0230    93.0663   173.2443 H            1 PLP501   0.0000
    20 H4          47.9618    93.7358   169.2242 H            1 PLP501   0.0000
    21 H4A         47.7552    91.2320   167.6815 H            1 PLP501   0.0000
    22 H6          47.1087    88.6830   171.7508 H            1 PLP501   0.0000
    23 H5A1        49.5386    89.3073   169.1627 H            1 PLP501   0.0000
    24 H5A2        48.1553    88.4936   168.8611 H            1 PLP501   0.0000
    25 H9          45.8731    90.4018   172.8381 H            1 PLP501   0.0000
@<TRIPOS>BOND
     1    1    2      ar
     2    1   10      ar
     3    2    3       1
     4    2    4      ar
     5    4    5       1
     6    4    6      ar
     7    6    7       1
     8    6    9      ar
     9    7    8       2
    10    9   10      ar
    11    9   11       1
    12   11   12       1
    13   12   13       1
    14   13   14      ar
    15   13   15      ar
    16   13   16      ar
    17    3   17       1
    18    3   18       1
    19    3   19       1
    20    5   20       1
    21    7   21       1
    22   10   22       1
    23   11   23       1
    24   11   24       1
    25    1   25       1
@<TRIPOS>SUBSTRUCTURE
     1 PLP501      1 GROUP             4 B     PLP     0 **** PLP B 501
