@<TRIPOS>MOLECULE
1i75_NOJ_1_ligand
   25    25     1     0     0
SMALL
NO_CHARGES


@<TRIPOS>ATOM
     1 C1          45.2950    54.2460    19.5050 C.3          1 NOJ2691   0.0000
     2 C2          46.4720    53.3520    19.9670 C.3          1 NOJ2691   0.0000
     3 O2          47.6940    54.0860    19.9250 O.3          1 NOJ2691   0.0000
     4 C3          46.5800    52.1620    19.0320 C.3          1 NOJ2691   0.0000
     5 O3          47.6980    51.3160    19.3240 O.3          1 NOJ2691   0.0000
     6 C4          45.2800    51.3150    19.0880 C.3          1 NOJ2691   0.0000
     7 O4          45.5110    50.1350    18.2740 O.3          1 NOJ2691   0.0000
     8 C5          44.0980    52.2460    18.5830 C.3          1 NOJ2691   0.0000
     9 N5          44.0380    53.4810    19.3650 N.4          1 NOJ2691   1.0000
    10 C6          42.6820    51.6040    18.7650 C.3          1 NOJ2691   0.0000
    11 O6          42.2520    51.8940    20.1210 O.3          1 NOJ2691   0.0000
    12 H1          45.5259    54.6516    18.6206 H            1 NOJ2691   0.0000
    13 H2          45.1575    54.9719    20.1789 H            1 NOJ2691   0.0000
    14 H3          46.3045    53.0320    20.8995 H            1 NOJ2691   0.0000
    15 H4          48.3148    53.7403    20.6286 H            1 NOJ2691   0.0000
    16 H5          46.6864    52.5075    18.0996 H            1 NOJ2691   0.0000
    17 H6          48.4363    51.8634    19.7181 H            1 NOJ2691   0.0000
    18 H7          45.1044    51.0379    20.0326 H            1 NOJ2691   0.0000
    19 H8          45.4148    49.3159    18.8395 H            1 NOJ2691   0.0000
    20 H9          44.2400    52.4698    17.6188 H            1 NOJ2691   0.0000
    21 H10         43.3660    54.0810    18.9309 H            1 NOJ2691   0.0000
    22 H11         42.7334    50.6151    18.6257 H            1 NOJ2691   0.0000
    23 H12         42.0391    52.0000    18.1093 H            1 NOJ2691   0.0000
    24 H13         41.3469    51.4979    20.2756 H            1 NOJ2691   0.0000
    25 H14         43.7262    53.2414    20.2845 H            1 NOJ2691   0.0000
@<TRIPOS>BOND
     1    1    2       1
     2    1    9       1
     3    2    3       1
     4    2    4       1
     5    4    5       1
     6    4    6       1
     7    6    7       1
     8    6    8       1
     9    8    9       1
    10    8   10       1
    11   10   11       1
    12    1   12       1
    13    1   13       1
    14    2   14       1
    15    3   15       1
    16    4   16       1
    17    5   17       1
    18    6   18       1
    19    7   19       1
    20    8   20       1
    21    9   21       1
    22   10   22       1
    23   10   23       1
    24   11   24       1
    25    9   25       1
@<TRIPOS>SUBSTRUCTURE
     1 NOJ2691     1 GROUP             4 A     NOJ     0 **** NOJ A2691
