@<TRIPOS>MOLECULE
1lox_RS7_1_ligand
   38    38     1     0     0
SMALL
NO_CHARGES


@<TRIPOS>ATOM
     1 C1         -28.2720   148.8510    55.7670 C.2          1 RS7841   0.0000
     2 O19        -27.0700   149.1660    55.6110 O.co2        1 RS7841   0.0000
     3 O18        -28.6420   147.6640    55.6810 O.co2        1 RS7841  -1.0000
     4 C2         -29.2890   149.8560    56.0700 C.2          1 RS7841   0.0000
     5 C3         -29.0240   151.2110    56.2310 C.2          1 RS7841   0.0000
     6 C4         -30.0100   152.0900    56.6730 C.ar         1 RS7841   0.0000
     7 C5         -31.3490   151.7020    56.5830 C.ar         1 RS7841   0.0000
     8 C6         -32.3620   152.4400    57.2150 C.ar         1 RS7841   0.0000
     9 C7         -32.0480   153.5860    57.9550 C.ar         1 RS7841   0.0000
    10 C8         -30.7210   154.0030    58.0660 C.ar         1 RS7841   0.0000
    11 C9         -29.7040   153.2740    57.4400 C.ar         1 RS7841   0.0000
    12 C10        -28.3750   153.6140    57.7750 C.1          1 RS7841   0.0000
    13 C11        -27.0220   153.8520    58.0880 C.1          1 RS7841   0.0000
    14 C12        -25.5530   153.9750    58.4200 C.3          1 RS7841   0.0000
    15 C13        -25.0390   152.6490    58.9670 C.3          1 RS7841   0.0000
    16 C14        -24.9570   151.5670    57.9010 C.3          1 RS7841   0.0000
    17 C15        -23.8630   151.8470    56.8870 C.3          1 RS7841   0.0000
    18 C16        -23.9060   150.8290    55.7600 C.3          1 RS7841   0.0000
    19 C17        -22.7690   151.0690    54.8000 C.3          1 RS7841   0.0000
    20 H1         -30.2358   149.5493    56.1677 H            1 RS7841   0.0000
    21 H2         -28.1099   151.5607    56.0260 H            1 RS7841   0.0000
    22 H3         -31.5899   150.8847    56.0595 H            1 RS7841   0.0000
    23 H4         -33.3143   152.1452    57.1361 H            1 RS7841   0.0000
    24 H5         -32.7747   154.1058    58.4041 H            1 RS7841   0.0000
    25 H6         -30.4969   154.8228    58.5929 H            1 RS7841   0.0000
    26 H7         -25.4260   154.6901    59.1074 H            1 RS7841   0.0000
    27 H8         -25.0439   154.2135    57.5930 H            1 RS7841   0.0000
    28 H9         -25.6571   152.3399    59.6898 H            1 RS7841   0.0000
    29 H10        -24.1257   152.7926    59.3482 H            1 RS7841   0.0000
    30 H11        -25.8343   151.5174    57.4236 H            1 RS7841   0.0000
    31 H12        -24.7690   150.6907    58.3446 H            1 RS7841   0.0000
    32 H13        -22.9734   151.7974    57.3410 H            1 RS7841   0.0000
    33 H14        -23.9930   152.7631    56.5077 H            1 RS7841   0.0000
    34 H15        -24.7745   150.9132    55.2715 H            1 RS7841   0.0000
    35 H16        -23.8267   149.9086    56.1428 H            1 RS7841   0.0000
    36 H17        -22.8069   150.3941    54.0630 H            1 RS7841   0.0000
    37 H18        -22.8468   151.9884    54.4144 H            1 RS7841   0.0000
    38 H19        -21.8990   150.9837    55.2857 H            1 RS7841   0.0000
@<TRIPOS>BOND
     1    1    2      ar
     2    1    3      ar
     3    1    4       1
     4    4    5       2
     5    5    6       1
     6    6    7      ar
     7    6   11      ar
     8    7    8      ar
     9    8    9      ar
    10    9   10      ar
    11   10   11      ar
    12   11   12       1
    13   12   13       3
    14   13   14       1
    15   14   15       1
    16   15   16       1
    17   16   17       1
    18   17   18       1
    19   18   19       1
    20   19   38       1
    21    4   20       1
    22    5   21       1
    23    7   22       1
    24    8   23       1
    25    9   24       1
    26   10   25       1
    27   14   26       1
    28   14   27       1
    29   15   28       1
    30   15   29       1
    31   16   30       1
    32   16   31       1
    33   17   32       1
    34   17   33       1
    35   18   34       1
    36   18   35       1
    37   19   36       1
    38   19   37       1
@<TRIPOS>SUBSTRUCTURE
     1 RS7841      1 GROUP             4 A     RS7     0 **** RS7 A 841
