@<TRIPOS>MOLECULE
5c7o_NAD_2_ligand
   70    74     1     0     0
SMALL
NO_CHARGES


@<TRIPOS>ATOM
     1 PA         -13.4020    14.1460    28.6520 P.3          1 NAD501   0.0000
     2 O1A        -14.6350    14.6380    29.3180 O.co2        1 NAD501   0.0000
     3 O2A        -12.8930    12.9580    29.3200 O.co2        1 NAD501  -1.0000
     4 O5B        -12.2690    15.2920    28.6520 O.3          1 NAD501   0.0000
     5 C5B        -12.6220    16.6500    28.5810 C.3          1 NAD501   0.0000
     6 C4B        -11.5960    17.4310    29.4600 C.3          1 NAD501   0.0000
     7 O4B        -11.6130    18.6990    29.0990 O.3          1 NAD501   0.0000
     8 C3B        -12.0080    17.3740    30.9130 C.3          1 NAD501   0.0000
     9 O3B        -10.9500    17.0510    31.6860 O.3          1 NAD501   0.0000
    10 C2B        -12.5030    18.8290    31.2440 C.3          1 NAD501   0.0000
    11 O2B        -12.1790    19.1620    32.6740 O.3          1 NAD501   0.0000
    12 C1B        -11.8220    19.5620    30.4420 C.3          1 NAD501   0.0000
    13 N9A        -12.4180    20.8230    30.0410 N.pl3        1 NAD501   0.0000
    14 C8A        -13.7330    21.0840    29.9080 C.2          1 NAD501   0.0000
    15 N7A        -13.8700    22.3810    29.4980 N.2          1 NAD501   0.0000
    16 C5A        -12.6220    22.9060    29.3760 C.ar         1 NAD501   0.0000
    17 C6A        -12.1680    24.1460    29.0000 C.ar         1 NAD501   0.0000
    18 N6A        -12.7670    25.3080    28.6160 N.pl3        1 NAD501   0.0000
    19 N1A        -10.8430    24.4060    28.9540 N.ar         1 NAD501   0.0000
    20 C2A         -9.9510    23.4500    29.2840 C.ar         1 NAD501   0.0000
    21 N3A        -10.3940    22.2100    29.6590 N.ar         1 NAD501   0.0000
    22 C4A        -11.7260    21.9490    29.7010 C.ar         1 NAD501   0.0000
    23 O3         -13.7250    13.8280    27.1780 O.3          1 NAD501   0.0000
    24 PN         -12.7830    13.0410    26.1990 P.3          1 NAD501   0.0000
    25 O1N        -13.2290    11.6390    26.1050 O.co2        1 NAD501   0.0000
    26 O2N        -11.3400    13.1520    26.6630 O.co2        1 NAD501  -1.0000
    27 O5D        -12.9430    13.7050    24.7520 O.3          1 NAD501   0.0000
    28 C5D        -12.3170    15.0020    24.5070 C.3          1 NAD501   0.0000
    29 C4D        -12.3120    15.2230    22.9650 C.3          1 NAD501   0.0000
    30 O4D        -11.7530    14.2050    22.3890 O.3          1 NAD501   0.0000
    31 C3D        -13.7660    15.2480    22.4620 C.3          1 NAD501   0.0000
    32 O3D        -13.8900    16.1120    21.4190 O.3          1 NAD501   0.0000
    33 C2D        -14.0170    13.8100    21.9890 C.3          1 NAD501   0.0000
    34 O2D        -15.1010    13.8180    21.0050 O.3          1 NAD501   0.0000
    35 C1D        -12.8690    13.4960    21.4580 C.3          1 NAD501   0.0000
    36 N1N        -12.5360    12.1010    21.3800 N.ar         1 NAD501   1.0000
    37 C2N        -12.8240    11.1720    22.3770 C.ar         1 NAD501   0.0000
    38 C3N        -12.4510     9.8310    22.2160 C.ar         1 NAD501   0.0000
    39 C7N        -12.7700     8.7990    23.3030 C.2          1 NAD501   0.0000
    40 O7N        -12.9960     7.6590    23.0090 O.2          1 NAD501   0.0000
    41 N7N        -12.7880     9.2140    24.7130 N.am         1 NAD501   0.0000
    42 C4N        -11.7900     9.4410    21.0970 C.ar         1 NAD501   0.0000
    43 C5N        -11.4960    10.3630    20.1210 C.ar         1 NAD501   0.0000
    44 C6N        -11.8740    11.6980    20.2840 C.ar         1 NAD501   0.0000
    45 H5B1       -13.5484    16.7835    28.9331 H            1 NAD501   0.0000
    46 H5B2       -12.5762    16.9683    27.6341 H            1 NAD501   0.0000
    47 H4B        -10.6789    17.0496    29.3442 H            1 NAD501   0.0000
    48 H3B        -12.7490    16.7148    31.0409 H            1 NAD501   0.0000
    49 H5         -10.4792    17.8855    31.9722 H            1 NAD501   0.0000
    50 H2B        -13.4831    18.9219    31.0684 H            1 NAD501   0.0000
    51 H7         -11.2723    19.5812    32.7214 H            1 NAD501   0.0000
    52 H1B        -10.9278    19.7435    30.8513 H            1 NAD501   0.0000
    53 H8A        -14.4792    20.4408    30.0794 H            1 NAD501   0.0000
    54 H6A1       -12.2094    26.1046    28.3827 H            1 NAD501   0.0000
    55 H6A2       -13.7642    25.3642    28.5675 H            1 NAD501   0.0000
    56 H2A         -8.9708    23.6458    29.2550 H            1 NAD501   0.0000
    57 H5D1       -11.3802    15.0025    24.8568 H            1 NAD501   0.0000
    58 H5D2       -12.8407    15.7261    24.9558 H            1 NAD501   0.0000
    59 H4D        -11.8382    16.0712    22.7280 H            1 NAD501   0.0000
    60 H3D        -14.3930    15.4926    23.2016 H            1 NAD501   0.0000
    61 H17        -14.8136    16.4952    21.4116 H            1 NAD501   0.0000
    62 H2D        -14.2339    13.2101    22.7591 H            1 NAD501   0.0000
    63 H19        -15.8550    13.2501    21.3351 H            1 NAD501   0.0000
    64 H1D        -12.8203    13.8903    20.5403 H            1 NAD501   0.0000
    65 H2N        -13.2975    11.4624    23.2086 H            1 NAD501   0.0000
    66 H7N1       -12.9953     8.5464    25.4281 H            1 NAD501   0.0000
    67 H7N2       -12.5929    10.1639    24.9572 H            1 NAD501   0.0000
    68 H4N        -11.5176     8.4856    20.9828 H            1 NAD501   0.0000
    69 H5N        -11.0114    10.0781    19.2940 H            1 NAD501   0.0000
    70 H6N        -11.6478    12.3638    19.5730 H            1 NAD501   0.0000
@<TRIPOS>BOND
     1    1    2      ar
     2    1    3      ar
     3    1    4       1
     4    1   23       1
     5    4    5       1
     6    5    6       1
     7    6    7       1
     8    6    8       1
     9    7   12       1
    10    8    9       1
    11    8   10       1
    12   10   11       1
    13   10   12       1
    14   12   13       1
    15   13   14       1
    16   13   22       1
    17   14   15       2
    18   15   16       1
    19   16   17      ar
    20   16   22      ar
    21   17   18       1
    22   17   19      ar
    23   19   20      ar
    24   20   21      ar
    25   21   22      ar
    26   23   24       1
    27   24   25      ar
    28   24   26      ar
    29   24   27       1
    30   27   28       1
    31   28   29       1
    32   29   30       1
    33   29   31       1
    34   30   35       1
    35   31   32       1
    36   31   33       1
    37   33   34       1
    38   33   35       1
    39   35   36       1
    40   36   37      ar
    41   36   44      ar
    42   37   38      ar
    43   38   39       1
    44   38   42      ar
    45   39   40       2
    46   39   41      am
    47   42   43      ar
    48   43   44      ar
    49   44   70       1
    50    5   45       1
    51    5   46       1
    52    6   47       1
    53    8   48       1
    54    9   49       1
    55   10   50       1
    56   11   51       1
    57   12   52       1
    58   14   53       1
    59   18   54       1
    60   18   55       1
    61   20   56       1
    62   43   69       1
    63   28   57       1
    64   28   58       1
    65   29   59       1
    66   31   60       1
    67   32   61       1
    68   33   62       1
    69   34   63       1
    70   35   64       1
    71   37   65       1
    72   41   66       1
    73   41   67       1
    74   42   68       1
@<TRIPOS>SUBSTRUCTURE
     1 NAD501      1 GROUP             4 P     NAD     0 **** NAD P 501
