@<TRIPOS>MOLECULE
4e7v_CRS_4_ligand
   16    16     1     0     0
SMALL
NO_CHARGES


@<TRIPOS>ATOM
     1 C1          38.1400    12.2880    35.9100 C.ar         1 CRS101   0.0000
     2 C2          38.7860    11.9380    34.7290 C.ar         1 CRS101   0.0000
     3 C3          38.7600    12.7970    33.6330 C.ar         1 CRS101   0.0000
     4 C4          38.1010    14.0130    33.7310 C.ar         1 CRS101   0.0000
     5 C5          37.4640    14.3640    34.9110 C.ar         1 CRS101   0.0000
     6 C6          37.4840    13.5090    36.0020 C.ar         1 CRS101   0.0000
     7 C7          39.4510    12.4450    32.3630 C.3          1 CRS101   0.0000
     8 O1          38.1470    11.4420    37.0050 O.3          1 CRS101   0.0000
     9 H1          39.2712    11.0658    34.6666 H            1 CRS101   0.0000
    10 H2          38.0853    14.6372    32.9499 H            1 CRS101   0.0000
    11 H3          36.9866    15.2403    34.9757 H            1 CRS101   0.0000
    12 H4          37.0276    13.7704    36.8525 H            1 CRS101   0.0000
    13 H5          39.3208    13.1802    31.6978 H            1 CRS101   0.0000
    14 H6          40.4280    12.3229    32.5379 H            1 CRS101   0.0000
    15 H7          39.0686    11.5953    31.9999 H            1 CRS101   0.0000
    16 H8          37.6774    11.7094    37.8464 H            1 CRS101   0.0000
@<TRIPOS>BOND
     1    1    2      ar
     2    1    6      ar
     3    1    8       1
     4    2    3      ar
     5    3    4      ar
     6    3    7       1
     7    4    5      ar
     8    5    6      ar
     9    2    9       1
    10    4   10       1
    11    5   11       1
    12    6   12       1
    13    7   13       1
    14    7   14       1
    15    7   15       1
    16    8   16       1
@<TRIPOS>SUBSTRUCTURE
     1 CRS101      1 GROUP             4 C     CRS     0 **** CRS C 101
