@<TRIPOS>MOLECULE
5fv0_ONA_1_ligand
   60    63     1     0     0
SMALL
NO_CHARGES


@<TRIPOS>ATOM
     1 CA7         39.5590    50.5410    45.2550 C.3          1 ONA2480   0.0000
     2 NA1         38.7580    51.4200    44.4130 N.pl3        1 ONA2480   0.0000
     3 CA6         37.8730    50.9990    43.4640 C.ar         1 ONA2480   0.0000
     4 CA5         37.6420    49.6440    43.1910 C.ar         1 ONA2480   0.0000
     5 CA4         36.7250    49.2600    42.2120 C.ar         1 ONA2480   0.0000
     6 CA3         36.0140    50.2070    41.4800 C.ar         1 ONA2480   0.0000
     7 CA2         36.1990    51.5690    41.7070 C.ar         1 ONA2480   0.0000
     8 CA1         37.1040    52.0100    42.6700 C.ar         1 ONA2480   0.0000
     9 CA          37.2830    53.4910    42.8920 C.2          1 ONA2480   0.0000
    10 OA          37.6200    53.9100    43.9880 O.2          1 ONA2480   0.0000
    11 O3'         37.0490    54.4580    41.8210 O.3          1 ONA2480   0.0000
    12 C3'         38.1290    54.7940    40.9310 C.3          1 ONA2480   0.0000
    13 C2'         37.7780    54.3270    39.5280 C.3          1 ONA2480   0.0000
    14 O2'         36.3720    54.1130    39.3700 O.3          1 ONA2480   0.0000
    15 C4'         39.4750    54.1230    41.2280 C.3          1 ONA2480   0.0000
    16 C5'         40.5970    55.1280    41.4680 C.3          1 ONA2480   0.0000
    17 O5'         41.8590    54.4610    41.5400 O.3          1 ONA2480   0.0000
    18 PA          42.1290    53.2760    42.5980 P.3          1 ONA2480   0.0000
    19 O3A         41.6940    51.9740    41.9720 O.co2        1 ONA2480   0.0000
    20 O2A         41.5480    53.6830    43.9320 O.co2        1 ONA2480  -1.0000
    21 O1A         43.7360    53.2440    42.7150 O.3          1 ONA2480   0.0000
    22 PB          44.6040    54.5460    43.0950 P.3          1 ONA2480   0.0000
    23 O3B         45.2280    55.0690    41.8240 O.co2        1 ONA2480   0.0000
    24 O2B         43.7870    55.4740    43.9620 O.co2        1 ONA2480  -1.0000
    25 O1B         45.7790    53.9170    43.9980 O.3          1 ONA2480   0.0000
    26 PG          45.5350    53.4240    45.5130 P.3          1 ONA2480   0.0000
    27 O3G         46.6510    52.4310    45.7310 O.co2        1 ONA2480   0.0000
    28 O1G         44.1550    52.8070    45.5210 O.co2        1 ONA2480  -1.0000
    29 O2G         45.6560    54.6880    46.3310 O.co2        1 ONA2480  -1.0000
    30 O4'         39.7830    53.2960    40.1000 O.3          1 ONA2480   0.0000
    31 C1'         38.5680    53.0350    39.3940 C.3          1 ONA2480   0.0000
    32 N9          38.8020    52.5780    37.9960 N.pl3        1 ONA2480   0.0000
    33 C8          39.8950    51.9130    37.5750 C.2          1 ONA2480   0.0000
    34 N7          39.8040    51.6090    36.2560 N.2          1 ONA2480   0.0000
    35 C5          38.6250    52.0750    35.8140 C.ar         1 ONA2480   0.0000
    36 C4          37.9620    52.7060    36.9650 C.ar         1 ONA2480   0.0000
    37 N3          36.7370    53.2630    36.7820 N.ar         1 ONA2480   0.0000
    38 C2          36.1300    53.2460    35.5780 C.ar         1 ONA2480   0.0000
    39 N1          36.6850    52.6830    34.4840 N.ar         1 ONA2480   0.0000
    40 C6          37.9010    52.0900    34.5200 C.ar         1 ONA2480   0.0000
    41 N6          38.4430    51.5300    33.4140 N.pl3        1 ONA2480   0.0000
    42 HA71        40.1263    51.0918    45.8671 H            1 ONA2480   0.0000
    43 HA72        38.9547    49.9565    45.7965 H            1 ONA2480   0.0000
    44 HA73        40.1456    49.9715    44.6792 H            1 ONA2480   0.0000
    45 HA1         38.8651    52.4061    44.5404 H            1 ONA2480   0.0000
    46 HA5         38.1400    48.9445    43.7036 H            1 ONA2480   0.0000
    47 HA4         36.5759    48.2875    42.0330 H            1 ONA2480   0.0000
    48 HA3         35.3629    49.9061    40.7832 H            1 ONA2480   0.0000
    49 HA2         35.6778    52.2357    41.1742 H            1 ONA2480   0.0000
    50 H3'         38.2519    55.7864    40.9249 H            1 ONA2480   0.0000
    51 H2'         38.0991    54.9944    38.8561 H            1 ONA2480   0.0000
    52 H11         36.1841    53.8077    38.4365 H            1 ONA2480   0.0000
    53 H4'         39.3780    53.5447    42.0380 H            1 ONA2480   0.0000
    54 H5'1        40.4294    55.6091    42.3285 H            1 ONA2480   0.0000
    55 H5'2        40.6153    55.7867    40.7158 H            1 ONA2480   0.0000
    56 H1'         38.0731    52.3144    39.8796 H            1 ONA2480   0.0000
    57 H16         40.6716    51.6746    38.1581 H            1 ONA2480   0.0000
    58 H17         35.2282    53.6695    35.4918 H            1 ONA2480   0.0000
    59 H18         37.9429    51.5478    32.5482 H            1 ONA2480   0.0000
    60 H19         39.3437    51.0983    33.4623 H            1 ONA2480   0.0000
@<TRIPOS>BOND
     1    1    2       1
     2    2    3       1
     3    3    4      ar
     4    3    8      ar
     5    4    5      ar
     6    5    6      ar
     7    6    7      ar
     8    7    8      ar
     9    8    9       1
    10    9   10       2
    11    9   11       1
    12   11   12       1
    13   12   13       1
    14   12   15       1
    15   13   14       1
    16   13   31       1
    17   15   16       1
    18   15   30       1
    19   16   17       1
    20   17   18       1
    21   18   19      ar
    22   18   20      ar
    23   18   21       1
    24   21   22       1
    25   22   23      ar
    26   22   24      ar
    27   22   25       1
    28   25   26       1
    29   26   27      ar
    30   26   28      ar
    31   26   29      ar
    32   30   31       1
    33   31   32       1
    34   32   33       1
    35   32   36       1
    36   33   34       2
    37   34   35       1
    38   35   36      ar
    39   35   40      ar
    40   36   37      ar
    41   37   38      ar
    42   38   39      ar
    43   39   40      ar
    44   40   41       1
    45    1   42       1
    46    1   43       1
    47    1   44       1
    48    2   45       1
    49    4   46       1
    50    5   47       1
    51    6   48       1
    52    7   49       1
    53   12   50       1
    54   13   51       1
    55   14   52       1
    56   15   53       1
    57   16   54       1
    58   16   55       1
    59   41   60       1
    60   41   59       1
    61   38   58       1
    62   33   57       1
    63   31   56       1
@<TRIPOS>SUBSTRUCTURE
     1 ONA2480     1 GROUP             4 A     ONA     0 **** ONA A2480
