@<TRIPOS>MOLECULE
4gbd_MCF_1_ligand
   39    41     1     0     0
SMALL
NO_CHARGES


@<TRIPOS>ATOM
     1 O8         -35.5780    -7.0800    34.8530 O.3          1 MCF501   0.0000
     2 C8         -35.8050    -5.8390    35.5840 C.3          1 MCF501   0.0000
     3 C7         -34.6410    -5.3150    36.4420 C.3          1 MCF501   0.0000
     4 N6         -34.0390    -6.4000    37.1760 N.pl3        1 MCF501   0.0000
     5 C5         -34.5740    -6.9340    38.2860 C.2          1 MCF501   0.0000
     6 N4         -35.8160    -7.0470    38.5650 N.2          1 MCF501   0.0000
     7 C10        -36.9180    -6.6400    37.8450 C.2          1 MCF501   0.0000
     8 C9         -36.9290    -6.0630    36.4870 C.2          1 MCF501   0.0000
     9 N1         -38.2360    -5.7820    36.2680 N.2          1 MCF501   0.0000
    10 C2         -38.9560    -6.1350    37.3750 C.2          1 MCF501   0.0000
    11 N3         -38.1440    -6.6500    38.3340 N.pl3        1 MCF501   0.0000
    12 C1S        -38.5820    -7.0930    39.6750 C.3          1 MCF501   0.0000
    13 C2S        -40.0820    -6.9430    39.8460 C.3          1 MCF501   0.0000
    14 O2S        -40.4370    -5.5960    40.1340 O.3          1 MCF501   0.0000
    15 O4S        -38.3700    -8.4710    39.7770 O.3          1 MCF501   0.0000
    16 C4S        -39.4080    -9.0550    40.5560 C.3          1 MCF501   0.0000
    17 C3S        -40.3870    -7.9590    40.9310 C.3          1 MCF501   0.0000
    18 O3S        -40.1130    -7.3130    42.1690 O.3          1 MCF501   0.0000
    19 C5S        -39.9100   -10.3440    39.9280 C.3          1 MCF501   0.0000
    20 S5S        -40.2260   -11.4770    41.2240 S.3          1 MCF501   0.0000
    21 C6S        -38.9150   -12.6430    41.1720 C.3          1 MCF501   0.0000
    22 H1         -35.6850    -6.9138    33.8727 H            1 MCF501   0.0000
    23 H2         -36.0613    -5.1279    34.9293 H            1 MCF501   0.0000
    24 H3         -34.9859    -4.6316    37.0854 H            1 MCF501   0.0000
    25 H4         -33.9542    -4.8966    35.8476 H            1 MCF501   0.0000
    26 H5         -33.1753    -6.7757    36.8400 H            1 MCF501   0.0000
    27 H6         -33.9306    -7.2809    38.9684 H            1 MCF501   0.0000
    28 H7         -39.9461    -6.0285    37.4663 H            1 MCF501   0.0000
    29 H1S        -38.0892    -6.6012    40.3928 H            1 MCF501   0.0000
    30 H2S        -40.5352    -7.2248    39.0003 H            1 MCF501   0.0000
    31 H10        -41.2633    -5.5822    40.6970 H            1 MCF501   0.0000
    32 H4S        -38.9741    -9.3289    41.4143 H            1 MCF501   0.0000
    33 H3S        -41.3337    -8.2775    40.8826 H            1 MCF501   0.0000
    34 H13        -40.9395    -6.8548    42.4960 H            1 MCF501   0.0000
    35 H5S1       -39.2157   -10.7159    39.3118 H            1 MCF501   0.0000
    36 H5S2       -40.7508   -10.1688    39.4158 H            1 MCF501   0.0000
    37 H6S1       -39.0430   -13.3210    41.8958 H            1 MCF501   0.0000
    38 H6S2       -38.9113   -13.1010    40.2831 H            1 MCF501   0.0000
    39 H6S3       -38.0437   -12.1712    41.3075 H            1 MCF501   0.0000
@<TRIPOS>BOND
     1    1    2       1
     2    2    3       1
     3    2    8       1
     4    3    4       1
     5    4    5       1
     6    5    6       2
     7    6    7       1
     8    7    8       2
     9    7   11       1
    10    8    9       1
    11    9   10       2
    12   10   11       1
    13   11   12       1
    14   12   13       1
    15   12   15       1
    16   13   14       1
    17   13   17       1
    18   15   16       1
    19   16   17       1
    20   16   19       1
    21   17   18       1
    22   19   20       1
    23   20   21       1
    24    1   22       1
    25    2   23       1
    26    3   24       1
    27    3   25       1
    28    4   26       1
    29    5   27       1
    30   10   28       1
    31   12   29       1
    32   13   30       1
    33   14   31       1
    34   16   32       1
    35   17   33       1
    36   18   34       1
    37   19   35       1
    38   19   36       1
    39   21   37       1
    40   21   38       1
    41   21   39       1
@<TRIPOS>SUBSTRUCTURE
     1 MCF501      1 GROUP             4 A     MCF     0 **** MCF A 501
