@<TRIPOS>MOLECULE
1jxi_HMH_2_ligand
   20    20     1     0     0
SMALL
NO_CHARGES


@<TRIPOS>ATOM
     1 CM2         26.4310    28.5040    68.8520 C.3          1 HMH2002   0.0000
     2 N1A         27.7370    26.9070    67.5140 N.ar         1 HMH2002   0.0000
     3 C2A         27.2340    27.2750    68.7930 C.ar         1 HMH2002   0.0000
     4 N3A         27.4720    26.5510    69.8830 N.ar         1 HMH2002   1.0000
     5 C4A         28.2540    25.3510    69.8270 C.ar         1 HMH2002   0.0000
     6 N4A         28.4450    24.6800    70.9740 N.pl3        1 HMH2002   0.0000
     7 C5A         28.8350    24.8850    68.4850 C.ar         1 HMH2002   0.0000
     8 C6A         28.5210    25.7310    67.3860 C.ar         1 HMH2002   0.0000
     9 C7A         29.6530    23.6220    68.4650 C.3          1 HMH2002   0.0000
    10 O1          29.2240    22.3970    69.4570 O.3          1 HMH2002   0.0000
    11 HM21        26.1330    28.6626    69.7933 H            1 HMH2002   0.0000
    12 HM22        26.9831    29.2781    68.5422 H            1 HMH2002   0.0000
    13 HM23        25.6304    28.4078    68.2606 H            1 HMH2002   0.0000
    14 H4A1        28.9848    23.8382    70.9769 H            1 HMH2002   0.0000
    15 H4A2        28.0475    25.0220    71.8255 H            1 HMH2002   0.0000
    16 H6A         28.8687    25.4859    66.4810 H            1 HMH2002   0.0000
    17 H7A1        30.5919    23.8751    68.6981 H            1 HMH2002   0.0000
    18 H7A2        29.6256    23.2678    67.5302 H            1 HMH2002   0.0000
    19 H9          29.9789    22.1928    70.0802 H            1 HMH2002   0.0000
    20 H3A         27.0973    26.8503    70.7605 H            1 HMH2002   0.0000
@<TRIPOS>BOND
     1    1    3       1
     2    2    3      ar
     3    2    8      ar
     4    3    4      ar
     5    4    5      ar
     6    5    6       1
     7    5    7      ar
     8    7    8      ar
     9    7    9       1
    10    9   10       1
    11    1   11       1
    12    1   12       1
    13    1   13       1
    14    6   14       1
    15    6   15       1
    16    8   16       1
    17    9   17       1
    18    9   18       1
    19   10   19       1
    20    4   20       1
@<TRIPOS>SUBSTRUCTURE
     1 HMH2002     1 GROUP             4 B     HMH     0 **** HMH B2002
