@<TRIPOS>MOLECULE
4zk6_NTM_1_ligand
   15    15     1     0     0
SMALL
NO_CHARGES


@<TRIPOS>ATOM
     1 N1          -8.5530     0.2060   -47.1830 N.ar         1 NTM402   0.0000
     2 C2          -8.0680    -0.8350   -46.4870 C.ar         1 NTM402   0.0000
     3 C3          -8.7530    -2.0380   -46.5740 C.ar         1 NTM402   0.0000
     4 C4          -9.8630    -2.1330   -47.3360 C.ar         1 NTM402   0.0000
     5 C5         -10.3240    -1.0640   -48.0240 C.ar         1 NTM402   0.0000
     6 C6          -9.6540     0.1380   -47.9510 C.ar         1 NTM402   0.0000
     7 C7          -6.7930    -0.6030   -45.6560 C.2          1 NTM402   0.0000
     8 O1          -6.2870     0.5500   -45.6040 O.co2        1 NTM402   0.0000
     9 O2          -6.2120    -1.5170   -45.0140 O.co2        1 NTM402  -1.0000
    10 C8          -8.3130    -3.2840   -45.8250 C.2          1 NTM402   0.0000
    11 O3          -7.3110    -3.9330   -46.2340 O.co2        1 NTM402   0.0000
    12 O4          -8.9740    -3.6410   -44.8080 O.co2        1 NTM402  -1.0000
    13 H1         -10.3503    -3.0044   -47.3925 H            1 NTM402   0.0000
    14 H2         -11.1485    -1.1455   -48.5840 H            1 NTM402   0.0000
    15 H3          -9.9782     0.9381   -48.4558 H            1 NTM402   0.0000
@<TRIPOS>BOND
     1    1    2      ar
     2    1    6      ar
     3    2    3      ar
     4    2    7       1
     5    3    4      ar
     6    3   10       1
     7    4    5      ar
     8    5    6      ar
     9    7    8      ar
    10    7    9      ar
    11   10   11      ar
    12   10   12      ar
    13    4   13       1
    14    5   14       1
    15    6   15       1
@<TRIPOS>SUBSTRUCTURE
     1 NTM402      1 GROUP             4 A     NTM     0 **** NTM A 402
