@<TRIPOS>MOLECULE
2ax4_ADP_4_ligand
   39    41     1     0     0
SMALL
NO_CHARGES


@<TRIPOS>ATOM
     1 PB         -61.1360   -25.6240    19.8630 P.3          1 ADP803   0.0000
     2 O1B        -60.0660   -26.1040    18.9330 O.co2        1 ADP803   0.0000
     3 O2B        -62.2090   -26.6340    20.1350 O.co2        1 ADP803  -1.0000
     4 O3B        -60.6320   -24.9380    21.1010 O.co2        1 ADP803  -1.0000
     5 PA         -61.9040   -22.8830    19.5290 P.3          1 ADP803   0.0000
     6 O1A        -62.9000   -22.6180    20.6570 O.co2        1 ADP803   0.0000
     7 O2A        -60.4840   -22.4310    19.7100 O.co2        1 ADP803  -1.0000
     8 O3A        -61.8570   -24.4160    19.0700 O.3          1 ADP803   0.0000
     9 O5'        -62.5200   -22.2730    18.1930 O.3          1 ADP803   0.0000
    10 C5'        -63.9540   -22.2330    18.0390 C.3          1 ADP803   0.0000
    11 C4'        -64.3830   -21.0620    17.1620 C.3          1 ADP803   0.0000
    12 O4'        -65.7670   -21.1930    16.7650 O.3          1 ADP803   0.0000
    13 C3'        -64.3140   -19.7360    17.8900 C.3          1 ADP803   0.0000
    14 O3'        -64.1520   -18.7680    16.8750 O.3          1 ADP803   0.0000
    15 C2'        -65.7210   -19.5570    18.4060 C.3          1 ADP803   0.0000
    16 O2'        -66.0800   -18.2300    18.7820 O.3          1 ADP803   0.0000
    17 C1'        -66.5240   -20.0450    17.2160 C.3          1 ADP803   0.0000
    18 N9         -67.8860   -20.3530    17.6880 N.pl3        1 ADP803   0.0000
    19 C8         -69.0440   -19.9660    17.1140 C.2          1 ADP803   0.0000
    20 N7         -70.1120   -20.3960    17.8200 N.2          1 ADP803   0.0000
    21 C5         -69.6480   -21.0650    18.8820 C.ar         1 ADP803   0.0000
    22 C6         -70.2190   -21.7710    20.0350 C.ar         1 ADP803   0.0000
    23 N6         -71.5510   -21.8900    20.2350 N.pl3        1 ADP803   0.0000
    24 N1         -69.3710   -22.3090    20.9080 N.ar         1 ADP803   0.0000
    25 C2         -68.0470   -22.2380    20.7720 C.ar         1 ADP803   0.0000
    26 N3         -67.4510   -21.6040    19.7590 N.ar         1 ADP803   0.0000
    27 C4         -68.1820   -21.0250    18.7930 C.ar         1 ADP803   0.0000
    28 H5'1       -64.3761   -22.1370    18.9404 H            1 ADP803   0.0000
    29 H5'2       -64.2604   -23.0860    17.6166 H            1 ADP803   0.0000
    30 H4'        -63.8042   -21.0258    16.3473 H            1 ADP803   0.0000
    31 H3'        -63.6126   -19.6995    18.6018 H            1 ADP803   0.0000
    32 H5         -64.0984   -17.8585    17.2873 H            1 ADP803   0.0000
    33 H2'        -65.8701   -20.1720    19.1803 H            1 ADP803   0.0000
    34 H7         -67.0254   -18.2201    19.1077 H            1 ADP803   0.0000
    35 H1'        -66.5522   -19.3441    16.5033 H            1 ADP803   0.0000
    36 H9         -69.1039   -19.4289    16.2726 H            1 ADP803   0.0000
    37 H10        -71.8945   -22.3805    21.0359 H            1 ADP803   0.0000
    38 H11        -72.1926   -21.4875    19.5820 H            1 ADP803   0.0000
    39 H12        -67.4729   -22.6803    21.4610 H            1 ADP803   0.0000
@<TRIPOS>BOND
     1    1    2      ar
     2    1    3      ar
     3    1    4      ar
     4    1    8       1
     5    5    6      ar
     6    5    7      ar
     7    5    8       1
     8    5    9       1
     9    9   10       1
    10   10   11       1
    11   11   12       1
    12   11   13       1
    13   12   17       1
    14   13   14       1
    15   13   15       1
    16   15   16       1
    17   15   17       1
    18   17   18       1
    19   18   19       1
    20   18   27       1
    21   19   20       2
    22   20   21       1
    23   21   22      ar
    24   21   27      ar
    25   22   23       1
    26   22   24      ar
    27   24   25      ar
    28   25   26      ar
    29   26   27      ar
    30   25   39       1
    31   23   38       1
    32   23   37       1
    33   10   28       1
    34   10   29       1
    35   11   30       1
    36   13   31       1
    37   14   32       1
    38   15   33       1
    39   16   34       1
    40   17   35       1
    41   19   36       1
@<TRIPOS>SUBSTRUCTURE
     1 ADP803      1 GROUP             4 D     ADP     0 **** ADP D 803
