@<TRIPOS>MOLECULE
4qed_NAP_1_ligand
   73    77     1     0     0
SMALL
NO_CHARGES


@<TRIPOS>ATOM
     1 PA          16.2710    -2.9800    19.6330 P.3          1 NAP300   0.0000
     2 O1A         17.3830    -3.7590    18.9870 O.co2        1 NAP300   0.0000
     3 O2A         15.2270    -3.5940    20.5130 O.co2        1 NAP300  -1.0000
     4 O5B         16.9640    -1.8370    20.5270 O.3          1 NAP300   0.0000
     5 C5B         16.1650    -0.8970    21.2320 C.3          1 NAP300   0.0000
     6 C4B         17.0150     0.3390    21.4820 C.3          1 NAP300   0.0000
     7 O4B         16.1620     1.3540    22.0010 O.3          1 NAP300   0.0000
     8 C3B         18.0740     0.0830    22.5440 C.3          1 NAP300   0.0000
     9 O3B         19.2350     0.8510    22.2060 O.3          1 NAP300   0.0000
    10 C2B         17.4480     0.6250    23.8110 C.3          1 NAP300   0.0000
    11 O2B         18.4250     1.0420    24.7650 O.3          1 NAP300   0.0000
    12 C1B         16.6300     1.7930    23.2770 C.3          1 NAP300   0.0000
    13 N9A         15.4930     2.1300    24.1600 N.pl3        1 NAP300   0.0000
    14 C8A         14.3600     1.4260    24.2960 C.2          1 NAP300   0.0000
    15 N7A         13.5640     2.0590    25.1850 N.2          1 NAP300   0.0000
    16 C5A         14.2150     3.1640    25.6010 C.ar         1 NAP300   0.0000
    17 C6A         13.8890     4.1700    26.4920 C.ar         1 NAP300   0.0000
    18 N6A         12.6980     4.1390    27.1420 N.pl3        1 NAP300   0.0000
    19 N1A         14.7740     5.1760    26.6930 N.ar         1 NAP300   0.0000
    20 C2A         15.9500     5.2010    26.0440 C.ar         1 NAP300   0.0000
    21 N3A         16.2910     4.2380    25.1710 N.ar         1 NAP300   0.0000
    22 C4A         15.4320     3.2100    24.9410 C.ar         1 NAP300   0.0000
    23 O3          15.4990    -2.0600    18.5590 O.3          1 NAP300   0.0000
    24 PN          15.5870    -2.1180    16.9560 P.3          1 NAP300   0.0000
    25 O1N         16.9680    -1.8550    16.4470 O.co2        1 NAP300   0.0000
    26 O2N         14.7890    -3.3050    16.4690 O.co2        1 NAP300  -1.0000
    27 O5D         14.6790    -0.8150    16.6550 O.3          1 NAP300   0.0000
    28 C5D         15.1930     0.5140    16.6050 C.3          1 NAP300   0.0000
    29 C4D         14.0800     1.4250    16.0770 C.3          1 NAP300   0.0000
    30 O4D         13.6520     0.9500    14.7980 O.3          1 NAP300   0.0000
    31 C3D         12.8260     1.4360    16.9560 C.3          1 NAP300   0.0000
    32 O3D         12.1900     2.7290    16.8540 O.3          1 NAP300   0.0000
    33 C2D         11.9280     0.4050    16.3100 C.3          1 NAP300   0.0000
    34 O2D         10.5460     0.5760    16.6590 O.3          1 NAP300   0.0000
    35 C1D         12.2410     0.6940    14.8400 C.3          1 NAP300   0.0000
    36 N1N         11.8810    -0.3800    13.9170 N.ar         1 NAP300   1.0000
    37 C2N         12.4150    -1.6220    14.0340 C.ar         1 NAP300   0.0000
    38 C3N         12.0440    -2.6200    13.1290 C.ar         1 NAP300   0.0000
    39 C7N         12.6030    -4.0200    13.1920 C.2          1 NAP300   0.0000
    40 O7N         12.2150    -4.8300    12.3630 O.2          1 NAP300   0.0000
    41 N7N         13.4920    -4.3710    14.1270 N.am         1 NAP300   0.0000
    42 C4N         11.1280    -2.3050    12.1170 C.ar         1 NAP300   0.0000
    43 C5N         10.6050    -1.0190    12.0220 C.ar         1 NAP300   0.0000
    44 C6N         11.0050    -0.0630    12.9430 C.ar         1 NAP300   0.0000
    45 P2B         18.7320     0.2040    26.1180 P.3          1 NAP300   0.0000
    46 O1X         17.9310    -1.0780    26.0250 O.co2        1 NAP300   0.0000
    47 O2X         20.2300    -0.0180    26.0860 O.co2        1 NAP300  -1.0000
    48 O3X         18.2440     1.1110    27.2090 O.co2        1 NAP300  -1.0000
    49 H5B1        15.8684    -1.2881    22.1033 H            1 NAP300   0.0000
    50 H5B2        15.3635    -0.6540    20.6856 H            1 NAP300   0.0000
    51 H4B         17.4423     0.6452    20.6313 H            1 NAP300   0.0000
    52 H3B         18.2868    -0.8907    22.6252 H            1 NAP300   0.0000
    53 H5          18.9972     1.8220    22.1827 H            1 NAP300   0.0000
    54 H2B         16.8434    -0.0609    24.2160 H            1 NAP300   0.0000
    55 H1B         17.2184     2.5936    23.1637 H            1 NAP300   0.0000
    56 H8A         14.1409     0.5748    23.8191 H            1 NAP300   0.0000
    57 H6A1        12.4611     4.8659    27.7866 H            1 NAP300   0.0000
    58 H6A2        12.0573     3.3892    26.9764 H            1 NAP300   0.0000
    59 H2A         16.5862     5.9535    26.2145 H            1 NAP300   0.0000
    60 H5D1        15.9825     0.5509    15.9924 H            1 NAP300   0.0000
    61 H5D2        15.4676     0.8075    17.5207 H            1 NAP300   0.0000
    62 H4D         14.4295     2.3574    15.9851 H            1 NAP300   0.0000
    63 H3D         13.0368     1.2009    17.9048 H            1 NAP300   0.0000
    64 H16         12.3700     3.1187    15.9508 H            1 NAP300   0.0000
    65 H2D         12.2324    -0.5163    16.5519 H            1 NAP300   0.0000
    66 H18         10.0101     0.7356    15.8299 H            1 NAP300   0.0000
    67 H1D         11.7569     1.5255    14.5675 H            1 NAP300   0.0000
    68 H2N         13.0697    -1.8217    14.7630 H            1 NAP300   0.0000
    69 H7N1        13.8501    -5.3044    14.1511 H            1 NAP300   0.0000
    70 H7N2        13.7988    -3.7001    14.8022 H            1 NAP300   0.0000
    71 H4N         10.8492    -3.0063    11.4610 H            1 NAP300   0.0000
    72 H5N          9.9514    -0.7882    11.3013 H            1 NAP300   0.0000
    73 H6N         10.6416     0.8668    12.8843 H            1 NAP300   0.0000
@<TRIPOS>BOND
     1    1    2      ar
     2    1    3      ar
     3    1    4       1
     4    1   23       1
     5    4    5       1
     6    5    6       1
     7    6    7       1
     8    6    8       1
     9    7   12       1
    10    8    9       1
    11    8   10       1
    12   10   11       1
    13   10   12       1
    14   11   45       1
    15   12   13       1
    16   13   14       1
    17   13   22       1
    18   14   15       2
    19   15   16       1
    20   16   17      ar
    21   16   22      ar
    22   17   18       1
    23   17   19      ar
    24   19   20      ar
    25   20   21      ar
    26   21   22      ar
    27   23   24       1
    28   24   25      ar
    29   24   26      ar
    30   24   27       1
    31   27   28       1
    32   28   29       1
    33   29   30       1
    34   29   31       1
    35   30   35       1
    36   31   32       1
    37   31   33       1
    38   33   34       1
    39   33   35       1
    40   35   36       1
    41   36   37      ar
    42   36   44      ar
    43   37   38      ar
    44   38   39       1
    45   38   42      ar
    46   39   40       2
    47   39   41      am
    48   42   43      ar
    49   43   44      ar
    50   45   46      ar
    51   45   47      ar
    52   45   48      ar
    53   43   72       1
    54    5   49       1
    55    5   50       1
    56    6   51       1
    57    8   52       1
    58    9   53       1
    59   10   54       1
    60   12   55       1
    61   14   56       1
    62   18   57       1
    63   18   58       1
    64   20   59       1
    65   44   73       1
    66   28   60       1
    67   28   61       1
    68   29   62       1
    69   31   63       1
    70   32   64       1
    71   33   65       1
    72   34   66       1
    73   35   67       1
    74   37   68       1
    75   41   69       1
    76   41   70       1
    77   42   71       1
@<TRIPOS>SUBSTRUCTURE
     1 NAP300      1 GROUP             4 A     NAP     0 **** NAP A 300
