@<TRIPOS>MOLECULE
3g8a_SAH_1_ligand
   46    48     1     0     0
SMALL
NO_CHARGES


@<TRIPOS>ATOM
     1 N           27.1030    12.7520   -17.7950 N.4          1 SAH303   1.0000
     2 CA          27.9600    13.2470   -18.8650 C.3          1 SAH303   0.0000
     3 CB          27.1870    13.2920   -20.1720 C.3          1 SAH303   0.0000
     4 CG          25.8850    14.0750   -20.0470 C.3          1 SAH303   0.0000
     5 SD          24.8000    13.8280   -21.4760 S.3          1 SAH303   0.0000
     6 C           28.4450    14.6600   -18.5590 C.2          1 SAH303   0.0000
     7 O           29.4610    15.1070   -19.0990 O.co2        1 SAH303   0.0000
     8 OXT         27.8270    15.3850   -17.7730 O.co2        1 SAH303  -1.0000
     9 C5'         23.7430    12.6880   -20.5390 C.3          1 SAH303   0.0000
    10 C4'         24.0000    11.2250   -20.8890 C.3          1 SAH303   0.0000
    11 O4'         23.1420    10.3570   -20.1630 O.3          1 SAH303   0.0000
    12 C3'         23.7690    10.9540   -22.3680 C.3          1 SAH303   0.0000
    13 O3'         24.9790    10.4980   -22.9340 O.3          1 SAH303   0.0000
    14 C2'         22.7050     9.8720   -22.4190 C.3          1 SAH303   0.0000
    15 O2'         23.0590     8.8900   -23.3630 O.3          1 SAH303   0.0000
    16 C1'         22.6880     9.3060   -21.0040 C.3          1 SAH303   0.0000
    17 N9          21.3540     8.8160   -20.5580 N.pl3        1 SAH303   0.0000
    18 C8          20.1750     9.5230   -20.4910 C.2          1 SAH303   0.0000
    19 N7          19.1980     8.7090   -20.0130 N.2          1 SAH303   0.0000
    20 C5          19.7290     7.4880   -19.7710 C.ar         1 SAH303   0.0000
    21 C6          19.1870     6.2960   -19.2810 C.ar         1 SAH303   0.0000
    22 N6          17.9010     6.2200   -18.9560 N.pl3        1 SAH303   0.0000
    23 N1          19.9950     5.1880   -19.1330 N.ar         1 SAH303   0.0000
    24 C2          21.3310     5.2690   -19.4700 C.ar         1 SAH303   0.0000
    25 N3          21.8660     6.4470   -19.9550 N.ar         1 SAH303   0.0000
    26 C4          21.0800     7.5440   -20.1070 C.ar         1 SAH303   0.0000
    27 H1          27.6599    12.2729   -17.1165 H            1 SAH303   0.0000
    28 H2          26.6356    13.5213   -17.3594 H            1 SAH303   0.0000
    29 HA          28.7484    12.6402   -18.9664 H            1 SAH303   0.0000
    30 HB1         26.9738    12.3560   -20.4520 H            1 SAH303   0.0000
    31 HB2         27.7580    13.7264   -20.8686 H            1 SAH303   0.0000
    32 HG1         26.1005    15.0485   -19.9704 H            1 SAH303   0.0000
    33 HG2         25.4057    13.7739   -19.2226 H            1 SAH303   0.0000
    34 H5'1        22.7866    12.9015   -20.7383 H            1 SAH303   0.0000
    35 H5'2        23.9174    12.8189   -19.5631 H            1 SAH303   0.0000
    36 H4'         24.9487    11.0019   -20.6649 H            1 SAH303   0.0000
    37 H3'         23.4527    11.7812   -22.8324 H            1 SAH303   0.0000
    38 H12         25.2665     9.6580   -22.4739 H            1 SAH303   0.0000
    39 H2'         21.8156    10.2687   -22.6461 H            1 SAH303   0.0000
    40 H14         23.9331     8.4788   -23.1044 H            1 SAH303   0.0000
    41 H1'         23.3407     8.5501   -20.9532 H            1 SAH303   0.0000
    42 H16         20.0567    10.4811   -20.7520 H            1 SAH303   0.0000
    43 H17         17.5235     5.3625   -18.6064 H            1 SAH303   0.0000
    44 H18         17.3106     7.0203   -19.0610 H            1 SAH303   0.0000
    45 H19         21.9180     4.4666   -19.3620 H            1 SAH303   0.0000
    46 H20         26.4255    12.1222   -18.1749 H            1 SAH303   0.0000
@<TRIPOS>BOND
     1    1    2       1
     2    2    3       1
     3    2    6       1
     4    3    4       1
     5    4    5       1
     6    5    9       1
     7    6    7      ar
     8    6    8      ar
     9    9   10       1
    10   10   11       1
    11   10   12       1
    12   11   16       1
    13   12   13       1
    14   12   14       1
    15   14   15       1
    16   14   16       1
    17   16   17       1
    18   17   18       1
    19   17   26       1
    20   18   19       2
    21   19   20       1
    22   20   21      ar
    23   20   26      ar
    24   21   22       1
    25   21   23      ar
    26   23   24      ar
    27   24   25      ar
    28   25   26      ar
    29    1   27       1
    30    1   28       1
    31    2   29       1
    32    3   30       1
    33    3   31       1
    34    4   32       1
    35    4   33       1
    36    1   46       1
    37    9   34       1
    38    9   35       1
    39   10   36       1
    40   12   37       1
    41   13   38       1
    42   14   39       1
    43   15   40       1
    44   16   41       1
    45   18   42       1
    46   22   43       1
    47   22   44       1
    48   24   45       1
@<TRIPOS>SUBSTRUCTURE
     1 SAH303      1 GROUP             4 A     SAH     0 **** SAH A 303
