@<TRIPOS>MOLECULE
./coach420/1tyw/ligand.pdb
 94 102 0 0 0
SMALL
GASTEIGER

@<TRIPOS>ATOM
      1  C1        72.6690   44.9810   89.2780 C.3     1  GLA1        0.2696
      2  C2        72.5440   44.2180   87.9710 C.3     1  GLA1        0.2406
      3  C3        72.2400   42.7490   88.2620 C.3     1  GLA1        0.2198
      4  C4        73.3310   42.1670   89.1570 C.3     1  GLA1        0.2144
      5  C5        73.5480   43.0360   90.4230 C.3     1  GLA1        0.1835
      6  C6        74.7800   42.6220   91.2120 C.3     1  GLA1        0.2142
      7  O2        71.4950   44.7740   87.1990 O.3     1  GLA1       -0.2149
      8  O3        72.1960   42.0220   87.0420 O.3     1  GLA1       -0.2174
      9  O4        74.5450   42.0340   88.4150 O.3     1  GLA1       -0.2176
     10  O5        73.7170   44.4330   90.0800 O.3     1  GLA1       -0.3256
     11  O6        74.8000   41.2190   91.4390 O.3     1  GLA1       -0.2176
     12  C1        71.4910   45.5080   92.3150 C.3     2  MAN2        0.2662
     13  C2        71.2290   46.0170   90.9040 C.3     2  MAN2        0.2035
     14  C3        69.8020   46.5440   90.8230 C.3     2  MAN2        0.1826
     15  C4        68.8210   45.4570   91.2440 C.3     2  MAN2        0.2111
     16  C5        69.1890   44.8870   92.6200 C.3     2  MAN2        0.1834
     17  C6        68.3530   43.6620   92.9550 C.3     2  MAN2        0.2142
     18  O2        71.4280   44.9680   89.9360 O.3     2  MAN2       -0.3232
     19  O3        69.5030   46.9740   89.4780 O.3     2  MAN2       -0.3257
     20  O4        67.5090   46.0020   91.2920 O.3     2  MAN2       -0.2177
     21  O5        70.5780   44.4770   92.6430 O.3     2  MAN2       -0.3257
     22  O6        68.4950   42.6520   91.9610 O.3     2  MAN2       -0.2176
     23  C1        69.2280   48.3410   89.3340 C.3     3  TYV3        0.2668
     24  C2        68.8700   48.6400   87.8660 C.3     3  TYV3        0.2105
     25  C3        70.1030   48.5110   86.9660 C.3     3  TYV3        0.0736
     26  C4        71.2450   49.3690   87.5200 C.3     3  TYV3        0.1817
     27  C5        71.5260   48.9800   88.9710 C.3     3  TYV3        0.1482
     28  C6        72.6290   49.7880   89.6240 C.3     3  TYV3        0.0349
     29  O2        68.3270   49.9490   87.7590 O.3     3  TYV3       -0.2176
     30  O4        72.4150   49.1920   86.7370 O.3     3  TYV3       -0.2205
     31  O5        70.3280   49.1500   89.7640 O.3     3  TYV3       -0.3285
     32  C1        72.9470   48.3250   96.5280 C.3     4  RAM4        0.2695
     33  C2        72.2480   46.9920   96.7920 C.3     4  RAM4        0.2404
     34  C3        71.3920   46.6190   95.5760 C.3     4  RAM4        0.2166
     35  C4        72.2330   46.6530   94.2930 C.3     4  RAM4        0.1778
     36  C5        73.0610   47.9360   94.1540 C.3     4  RAM4        0.1476
     37  C6        74.0910   47.8240   93.0430 C.3     4  RAM4        0.0348
     38  O2        73.2170   45.9810   97.0300 O.3     4  RAM4       -0.2149
     39  O3        70.8370   45.3190   95.7430 O.3     4  RAM4       -0.2175
     40  O4        71.3460   46.5880   93.1760 O.3     4  RAM4       -0.3259
     41  O5        73.7770   48.2190   95.3710 O.3     4  RAM4       -0.3285
     42  C1        72.5630   52.8690   97.4710 C.3     5  GLA5        0.2695
     43  C2        72.0820   51.4210   97.5940 C.3     5  GLA5        0.2373
     44  C3        72.4550   50.6740   96.3100 C.3     5  GLA5        0.1827
     45  C4        71.8710   51.3860   95.0690 C.3     5  GLA5        0.1772
     46  C5        72.3100   52.8550   95.0590 C.3     5  GLA5        0.1802
     47  C6        71.5990   53.6460   93.9690 C.3     5  GLA5        0.2141
     48  O2        72.6950   50.7910   98.7230 O.3     5  GLA5       -0.2150
     49  O3        71.9710   49.3220   96.3800 O.3     5  GLA5       -0.3256
     50  O4        70.4260   51.3320   95.0700 O.3     5  GLA5       -0.3259
     51  O5        71.9850   53.4900   96.3230 O.3     5  GLA5       -0.3257
     52  O6        72.3710   54.7670   93.5980 O.3     5  GLA5       -0.2176
     53  C1        74.8000   55.0830   96.8680 C.3     6  MAN6        0.2662
     54  C2        74.6230   54.0160   97.9340 C.3     6  MAN6        0.2035
     55  C3        75.9890   53.6180   98.4720 C.3     6  MAN6        0.1826
     56  C4        76.8830   53.1340   97.3390 C.3     6  MAN6        0.2111
     57  C5        76.9820   54.1970   96.2240 C.3     6  MAN6        0.1834
     58  C6        77.6860   53.6290   94.9860 C.3     6  MAN6        0.2142
     59  O2        73.9610   52.8660   97.3950 O.3     6  MAN6       -0.3232
     60  O3        75.8440   52.5730   99.4510 O.3     6  MAN6       -0.3257
     61  O4        78.1750   52.8420   97.8570 O.3     6  MAN6       -0.2177
     62  O5        75.6520   54.6200   95.8120 O.3     6  MAN6       -0.3257
     63  O6        77.8590   54.6020   93.9640 O.3     6  MAN6       -0.2176
     64  C1        76.1340   52.9740  100.7580 C.3     7  TYV7        0.2668
     65  C2        76.1810   51.7540  101.6740 C.3     7  TYV7        0.2105
     66  C3        74.7710   51.1860  101.8830 C.3     7  TYV7        0.0736
     67  C4        73.8280   52.2880  102.3740 C.3     7  TYV7        0.1817
     68  C5        73.8570   53.4750  101.3990 C.3     7  TYV7        0.1482
     69  C6        73.0050   54.6600  101.8530 C.3     7  TYV7        0.0349
     70  O2        76.7520   52.1260  102.9220 O.3     7  TYV7       -0.2176
     71  O4        72.5060   51.7770  102.4800 O.3     7  TYV7       -0.2205
     72  O5        75.2130   53.9520  101.2450 O.3     7  TYV7       -0.3285
     73  C1        75.8640   60.2830   96.5260 C.3     8  RAM8        0.3023
     74  C2        77.0100   59.2850   96.8150 C.3     8  RAM8        0.2433
     75  C3        76.6930   57.8410   96.3740 C.3     8  RAM8        0.2167
     76  C4        75.2720   57.4490   96.7770 C.3     8  RAM8        0.1778
     77  C5        74.6450   58.5250   97.6640 C.3     8  RAM8        0.1477
     78  C6        73.2340   58.1520   98.1400 C.3     8  RAM8        0.0348
     79  O1        76.0910   61.4440   97.2310 O.3     8  RAM8       -0.1869
     80  O2        78.2080   59.7190   96.1730 O.3     8  RAM8       -0.2148
     81  O3        76.8680   57.6900   94.9720 O.3     8  RAM8       -0.2175
     82  O4        75.3120   56.2170   97.5030 O.3     8  RAM8       -0.3259
     83  O5        74.5680   59.7700   96.9250 O.3     8  RAM8       -0.3265
     84  C1        69.7910   50.1430   94.6550 C.3     9  GLC9        0.2695
     85  C2        69.3780   50.2430   93.1760 C.3     9  GLC9        0.2406
     86  C3        68.3550   51.3650   93.0040 C.3     9  GLC9        0.2198
     87  C4        67.1690   51.1480   93.9520 C.3     9  GLC9        0.2144
     88  C5        67.7080   51.0110   95.3910 C.3     9  GLC9        0.1835
     89  C6        66.6830   50.8060   96.4950 C.3     9  GLC9        0.2142
     90  O2        70.5070   50.4860   92.3500 O.3     9  GLC9       -0.2149
     91  O3        67.9090   51.4070   91.6610 O.3     9  GLC9       -0.2174
     92  O4        66.2890   52.2560   93.8600 O.3     9  GLC9       -0.2176
     93  O5        68.6380   49.9140   95.4460 O.3     9  GLC9       -0.3256
     94  O6        67.2710   50.9510   97.7870 O.3     9  GLC9       -0.2176
@<TRIPOS>BOND
     1     1     2    1
     2     1    18    1
     3     1    10    1
     4     2     7    1
     5     2     3    1
     6     3     8    1
     7     3     4    1
     8     4     9    1
     9     4     5    1
    10     5    10    1
    11     5     6    1
    12     6    11    1
    13    12    13    1
    14    12    21    1
    15    12    40    1
    16    13    18    1
    17    13    14    1
    18    14    19    1
    19    14    15    1
    20    15    20    1
    21    15    16    1
    22    16    21    1
    23    16    17    1
    24    17    22    1
    25    19    23    1
    26    23    24    1
    27    23    31    1
    28    24    25    1
    29    24    29    1
    30    25    26    1
    31    26    30    1
    32    26    27    1
    33    27    28    1
    34    27    31    1
    35    32    41    1
    36    32    49    1
    37    32    33    1
    38    33    34    1
    39    33    38    1
    40    34    35    1
    41    34    39    1
    42    35    40    1
    43    35    36    1
    44    36    37    1
    45    36    41    1
    46    42    51    1
    47    42    59    1
    48    42    43    1
    49    43    44    1
    50    43    48    1
    51    44    45    1
    52    44    49    1
    53    45    46    1
    54    45    50    1
    55    46    47    1
    56    46    51    1
    57    47    52    1
    58    50    84    1
    59    53    62    1
    60    53    82    1
    61    53    54    1
    62    54    59    1
    63    54    55    1
    64    55    56    1
    65    55    60    1
    66    56    57    1
    67    56    61    1
    68    57    58    1
    69    57    62    1
    70    58    63    1
    71    60    64    1
    72    64    72    1
    73    64    65    1
    74    65    66    1
    75    65    70    1
    76    66    67    1
    77    67    68    1
    78    67    71    1
    79    68    72    1
    80    68    69    1
    81    73    74    1
    82    73    83    1
    83    73    79    1
    84    74    80    1
    85    74    75    1
    86    75    81    1
    87    75    76    1
    88    76    82    1
    89    76    77    1
    90    77    83    1
    91    77    78    1
    92    84    85    1
    93    84    93    1
    94    85    90    1
    95    85    86    1
    96    86    91    1
    97    86    87    1
    98    87    92    1
    99    87    88    1
   100    88    93    1
   101    88    89    1
   102    89    94    1
