@<TRIPOS>MOLECULE
1wn3_HXC_2_ligand
   97    99     1     0     0
SMALL
NO_CHARGES


@<TRIPOS>ATOM
     1 C2         -13.4870    25.9430    17.8940 C.ar         1 HXC2004   0.0000
     2 C4         -14.7370    24.8170    16.1700 C.ar         1 HXC2004   0.0000
     3 C5         -15.7010    25.8700    16.1790 C.ar         1 HXC2004   0.0000
     4 C6         -15.4680    26.9040    17.0740 C.ar         1 HXC2004   0.0000
     5 C8         -16.2880    24.3990    14.7110 C.2          1 HXC2004   0.0000
     6 N9         -15.1510    23.9000    15.2190 N.pl3        1 HXC2004   0.0000
     7 N7         -16.6730    25.5710    15.2390 N.2          1 HXC2004   0.0000
     8 N3         -13.6880    24.9140    17.0270 N.ar         1 HXC2004   0.0000
     9 N1         -14.3970    26.9530    17.9130 N.ar         1 HXC2004   0.0000
    10 N6         -16.3610    27.9310    17.1170 N.pl3        1 HXC2004   0.0000
    11 C1'        -14.5290    22.6430    14.8040 C.3          1 HXC2004   0.0000
    12 C2'        -15.3090    21.3260    14.8890 C.3          1 HXC2004   0.0000
    13 O2'        -15.5850    20.9910    16.2560 O.3          1 HXC2004   0.0000
    14 C3'        -14.2530    20.3920    14.3130 C.3          1 HXC2004   0.0000
    15 O3'        -13.1350    20.2110    15.2230 O.3          1 HXC2004   0.0000
    16 C4'        -13.8680    21.2490    13.0970 C.3          1 HXC2004   0.0000
    17 O4'        -13.7860    22.5840    13.5860 O.3          1 HXC2004   0.0000
    18 C5'        -14.9010    21.1980    11.9420 C.3          1 HXC2004   0.0000
    19 O5'        -14.6460    22.1570    10.8640 O.3          1 HXC2004   0.0000
    20 P1         -15.6330    22.2220     9.6320 P.3          1 HXC2004   0.0000
    21 O11        -17.0490    21.7190    10.0680 O.co2        1 HXC2004   0.0000
    22 O12        -14.9670    21.2960     8.5760 O.co2        1 HXC2004  -1.0000
    23 O6         -15.9290    23.6310     8.9890 O.3          1 HXC2004   0.0000
    24 P2         -15.0520    24.6670     8.1820 P.3          1 HXC2004   0.0000
    25 O21        -15.8620    25.9810     7.9560 O.co2        1 HXC2004   0.0000
    26 O22        -14.5890    24.0350     6.8410 O.co2        1 HXC2004  -1.0000
    27 O7         -13.7730    25.0350     8.9760 O.3          1 HXC2004   0.0000
    28 CPB        -12.9490    26.1670     8.5540 C.3          1 HXC2004   0.0000
    29 CPA        -12.2310    26.7260     9.7800 C.3          1 HXC2004   0.0000
    30 CP7        -11.5790    25.5000    10.4640 C.3          1 HXC2004   0.0000
    31 CP9        -13.3290    27.4500    10.5970 C.3          1 HXC2004   0.0000
    32 CP8        -11.2060    27.6890     9.1690 C.3          1 HXC2004   0.0000
    33 OP3        -10.6960    24.8570     9.5360 O.3          1 HXC2004   0.0000
    34 CP6        -10.8280    25.7750    11.7650 C.2          1 HXC2004   0.0000
    35 OP2        -11.4150    25.8770    12.8390 O.2          1 HXC2004   0.0000
    36 NP2         -9.4950    25.8870    11.6050 N.am         1 HXC2004   0.0000
    37 CP5         -8.5860    26.1470    12.7150 C.3          1 HXC2004   0.0000
    38 CP4         -7.9170    27.5090    12.5940 C.3          1 HXC2004   0.0000
    39 CP3         -6.8630    27.6570    13.6700 C.2          1 HXC2004   0.0000
    40 OP1         -6.6920    26.8080    14.5420 O.2          1 HXC2004   0.0000
    41 NP1         -6.1640    28.8040    13.5430 N.am         1 HXC2004   0.0000
    42 CP2         -5.0660    29.3510    14.3480 C.3          1 HXC2004   0.0000
    43 CP1         -5.3540    29.3390    15.8510 C.3          1 HXC2004   0.0000
    44 S           -6.9210    30.1900    16.3670 S.3          1 HXC2004   0.0000
    45 P3         -12.8540    18.8240    15.9020 P.3          1 HXC2004   0.0000
    46 O31        -12.7060    17.7440    14.7990 O.co2        1 HXC2004   0.0000
    47 O32        -14.0320    18.4720    16.8470 O.co2        1 HXC2004  -1.0000
    48 O33        -11.5370    18.9590    16.7080 O.co2        1 HXC2004  -1.0000
    49 CM1         -7.3310    31.6820    15.4700 C.2          1 HXC2004   0.0000
    50 CM2         -8.5480    32.4880    15.8600 C.3          1 HXC2004   0.0000
    51 CM3         -8.1100    33.6750    16.7260 C.3          1 HXC2004   0.0000
    52 OM2         -6.6080    32.0610    14.5550 O.2          1 HXC2004   0.0000
    53 CM4         -7.1150    33.2520    17.8140 C.3          1 HXC2004   0.0000
    54 CM5         -5.6880    33.7480    17.5360 C.3          1 HXC2004   0.0000
    55 CM6         -4.6210    32.6570    17.6130 C.3          1 HXC2004   0.0000
    56 H1         -12.6920    25.9561    18.5005 H            1 HXC2004   0.0000
    57 H2         -16.8081    23.9338    13.9947 H            1 HXC2004   0.0000
    58 H3         -16.2195    28.6904    17.7521 H            1 HXC2004   0.0000
    59 H4         -17.1584    27.9259    16.5135 H            1 HXC2004   0.0000
    60 H1'        -13.8180    22.5166    15.4957 H            1 HXC2004   0.0000
    61 H2'        -16.1390    21.3441    14.3316 H            1 HXC2004   0.0000
    62 H7         -15.1685    20.1083    16.4735 H            1 HXC2004   0.0000
    63 H3'        -14.6478    19.5160    14.0360 H            1 HXC2004   0.0000
    64 H4'        -12.9724    20.9625    12.7568 H            1 HXC2004   0.0000
    65 H5'1       -15.8062    21.3875    12.3225 H            1 HXC2004   0.0000
    66 H5'2       -14.8896    20.2774    11.5517 H            1 HXC2004   0.0000
    67 HPB1       -13.5290    26.8748     8.1507 H            1 HXC2004   0.0000
    68 HPB2       -12.2770    25.8622     7.8791 H            1 HXC2004   0.0000
    69 HP7        -12.3115    24.8527    10.6747 H            1 HXC2004   0.0000
    70 HP91       -12.9250    27.8441    11.4225 H            1 HXC2004   0.0000
    71 HP92       -13.7314    28.1784    10.0424 H            1 HXC2004   0.0000
    72 HP93       -14.0398    26.7951    10.8537 H            1 HXC2004   0.0000
    73 HP81       -10.6733    28.1163     9.8995 H            1 HXC2004   0.0000
    74 HP82       -10.5934    27.1827     8.5621 H            1 HXC2004   0.0000
    75 HP83       -11.6829    28.3961     8.6469 H            1 HXC2004   0.0000
    76 HP3        -10.2723    24.0640     9.9738 H            1 HXC2004   0.0000
    77 HP2         -9.1129    25.7876    10.6862 H            1 HXC2004   0.0000
    78 HP51        -7.8793    25.4396    12.7266 H            1 HXC2004   0.0000
    79 HP52        -9.1030    26.1157    13.5704 H            1 HXC2004   0.0000
    80 HP41        -8.6042    28.2276    12.7008 H            1 HXC2004   0.0000
    81 HP42        -7.4874    27.5896    11.6946 H            1 HXC2004   0.0000
    82 HP1         -6.4404    29.3770    12.7714 H            1 HXC2004   0.0000
    83 HP21        -4.9037    30.2958    14.0633 H            1 HXC2004   0.0000
    84 HP22        -4.2452    28.8058    14.1776 H            1 HXC2004   0.0000
    85 HP11        -4.5911    29.7891    16.3151 H            1 HXC2004   0.0000
    86 HP12        -5.4086    28.3854    16.1472 H            1 HXC2004   0.0000
    87 HM21        -9.1794    31.9110    16.3780 H            1 HXC2004   0.0000
    88 HM22        -9.0040    32.8251    15.0363 H            1 HXC2004   0.0000
    89 HM31        -8.9173    34.0720    17.1627 H            1 HXC2004   0.0000
    90 HM32        -7.6769    34.3602    16.1404 H            1 HXC2004   0.0000
    91 HM41        -7.1024    32.2534    17.8656 H            1 HXC2004   0.0000
    92 HM42        -7.4194    33.6272    18.6895 H            1 HXC2004   0.0000
    93 HM51        -5.4644    34.4536    18.2084 H            1 HXC2004   0.0000
    94 HM52        -5.6666    34.1437    16.6179 H            1 HXC2004   0.0000
    95 HM61        -3.7235    33.0544    17.4215 H            1 HXC2004   0.0000
    96 HM62        -4.6195    32.2563    18.5292 H            1 HXC2004   0.0000
    97 HM63        -4.8216    31.9463    16.9387 H            1 HXC2004   0.0000
@<TRIPOS>BOND
     1    1    8      ar
     2    1    9      ar
     3    2    3      ar
     4    2    6       1
     5    2    8      ar
     6    3    4      ar
     7    3    7       1
     8    4    9      ar
     9    4   10       1
    10    5    6       1
    11    5    7       2
    12    6   11       1
    13   11   12       1
    14   11   17       1
    15   12   13       1
    16   12   14       1
    17   14   15       1
    18   14   16       1
    19   15   45       1
    20   16   17       1
    21   16   18       1
    22   18   19       1
    23   19   20       1
    24   20   21      ar
    25   20   22      ar
    26   20   23       1
    27   23   24       1
    28   24   25      ar
    29   24   26      ar
    30   24   27       1
    31   27   28       1
    32   28   29       1
    33   29   30       1
    34   29   31       1
    35   29   32       1
    36   30   33       1
    37   30   34       1
    38   34   35       2
    39   34   36      am
    40   36   37       1
    41   37   38       1
    42   38   39       1
    43   39   40       2
    44   39   41      am
    45   41   42       1
    46   42   43       1
    47   43   44       1
    48   44   49       1
    49   45   46      ar
    50   45   47      ar
    51   45   48      ar
    52   49   50       1
    53   49   52       2
    54   50   51       1
    55   51   53       1
    56   53   54       1
    57   54   55       1
    58    1   56       1
    59    5   57       1
    60   10   58       1
    61   10   59       1
    62   11   60       1
    63   12   61       1
    64   13   62       1
    65   14   63       1
    66   16   64       1
    67   18   65       1
    68   18   66       1
    69   55   97       1
    70   55   96       1
    71   28   67       1
    72   28   68       1
    73   30   69       1
    74   31   70       1
    75   31   71       1
    76   31   72       1
    77   32   73       1
    78   32   74       1
    79   32   75       1
    80   33   76       1
    81   36   77       1
    82   37   78       1
    83   37   79       1
    84   38   80       1
    85   38   81       1
    86   41   82       1
    87   42   83       1
    88   42   84       1
    89   43   85       1
    90   43   86       1
    91   55   95       1
    92   54   94       1
    93   50   87       1
    94   50   88       1
    95   51   89       1
    96   51   90       1
    97   53   91       1
    98   53   92       1
    99   54   93       1
@<TRIPOS>SUBSTRUCTURE
     1 HXC2004     1 GROUP             4 D     HXC     0 **** HXC D2004
