@<TRIPOS>MOLECULE
4qqz_ANP_3_ligand
   44    46     1     0     0
SMALL
NO_CHARGES


@<TRIPOS>ATOM
     1 PG         -54.4750    57.4110   -14.3110 P.3          1 ANP1003   0.0000
     2 O1G        -53.0080    57.4360   -14.2530 O.co2        1 ANP1003   0.0000
     3 O2G        -55.1950    58.1510   -13.2610 O.co2        1 ANP1003  -1.0000
     4 O3G        -55.0530    56.0600   -14.5520 O.co2        1 ANP1003  -1.0000
     5 PB         -55.2590    59.8750   -15.4240 P.3          1 ANP1003   0.0000
     6 O1B        -54.9710    60.7230   -16.5950 O.co2        1 ANP1003   0.0000
     7 O2B        -56.5480    59.6090   -14.8620 O.co2        1 ANP1003  -1.0000
     8 N3B        -54.8070    58.2860   -15.7410 N.3          1 ANP1003   0.0000
     9 PA         -52.7310    60.0650   -15.0790 P.3          1 ANP1003   0.0000
    10 O1A        -52.6900    59.1320   -16.1950 O.co2        1 ANP1003   0.0000
    11 O2A        -51.7780    59.6670   -14.0870 O.co2        1 ANP1003  -1.0000
    12 O3A        -54.1350    60.1720   -14.4050 O.3          1 ANP1003   0.0000
    13 O5'        -52.5290    61.5380   -15.4640 O.3          1 ANP1003   0.0000
    14 C5'        -52.3460    61.7330   -16.8390 C.3          1 ANP1003   0.0000
    15 C4'        -51.0610    62.4520   -17.1550 C.3          1 ANP1003   0.0000
    16 O4'        -50.3310    62.7020   -16.0080 O.3          1 ANP1003   0.0000
    17 C3'        -50.1370    61.5680   -17.9240 C.3          1 ANP1003   0.0000
    18 O3'        -49.8280    62.2110   -19.1360 O.3          1 ANP1003   0.0000
    19 C2'        -48.8240    61.5150   -17.2170 C.3          1 ANP1003   0.0000
    20 O2'        -47.8190    61.6490   -18.2220 O.3          1 ANP1003   0.0000
    21 C1'        -48.9950    62.7530   -16.4260 C.3          1 ANP1003   0.0000
    22 N9         -48.0710    63.0490   -15.3220 N.pl3        1 ANP1003   0.0000
    23 C8         -47.5130    64.2430   -15.1980 C.2          1 ANP1003   0.0000
    24 N7         -46.7230    64.3720   -14.1380 N.2          1 ANP1003   0.0000
    25 C5         -46.7930    63.2070   -13.5380 C.ar         1 ANP1003   0.0000
    26 C6         -46.1810    62.6730   -12.3420 C.ar         1 ANP1003   0.0000
    27 N6         -45.3500    63.3840   -11.5890 N.pl3        1 ANP1003   0.0000
    28 N1         -46.4620    61.4340   -12.0370 N.ar         1 ANP1003   0.0000
    29 C2         -47.2880    60.7200   -12.8010 C.ar         1 ANP1003   0.0000
    30 N3         -47.8880    61.1420   -13.9090 N.ar         1 ANP1003   0.0000
    31 C4         -47.6720    62.3550   -14.3190 C.ar         1 ANP1003   0.0000
    32 H3B        -53.9863    58.2926   -16.3123 H            1 ANP1003   0.0000
    33 H5'1       -53.1104    62.2735   -17.1905 H            1 ANP1003   0.0000
    34 H5'2       -52.3333    60.8407   -17.2903 H            1 ANP1003   0.0000
    35 H4'        -51.2408    63.2995   -17.6544 H            1 ANP1003   0.0000
    36 H3'        -50.5227    60.6569   -18.0695 H            1 ANP1003   0.0000
    37 H6         -48.8408    62.3606   -19.1917 H            1 ANP1003   0.0000
    38 H2'        -48.7118    60.6974   -16.6523 H            1 ANP1003   0.0000
    39 H8         -47.2331    60.8386   -18.2177 H            1 ANP1003   0.0000
    40 H1'        -48.9255    63.5154   -17.0694 H            1 ANP1003   0.0000
    41 H10        -47.6729    64.9858   -15.8481 H            1 ANP1003   0.0000
    42 H11        -44.9471    62.9781   -10.7687 H            1 ANP1003   0.0000
    43 H12        -45.1271    64.3254   -11.8422 H            1 ANP1003   0.0000
    44 H13        -47.4734    59.7801   -12.5141 H            1 ANP1003   0.0000
@<TRIPOS>BOND
     1    1    2      ar
     2    1    3      ar
     3    1    4      ar
     4    1    8       1
     5    5    6      ar
     6    5    7      ar
     7    5    8       1
     8    5   12       1
     9    9   10      ar
    10    9   11      ar
    11    9   12       1
    12    9   13       1
    13   13   14       1
    14   14   15       1
    15   15   16       1
    16   15   17       1
    17   16   21       1
    18   17   18       1
    19   17   19       1
    20   19   20       1
    21   19   21       1
    22   21   22       1
    23   22   23       1
    24   22   31       1
    25   23   24       2
    26   24   25       1
    27   25   26      ar
    28   25   31      ar
    29   26   27       1
    30   26   28      ar
    31   28   29      ar
    32   29   30      ar
    33   30   31      ar
    34   29   44       1
    35   27   43       1
    36   27   42       1
    37    8   32       1
    38   23   41       1
    39   14   33       1
    40   14   34       1
    41   15   35       1
    42   17   36       1
    43   18   37       1
    44   19   38       1
    45   20   39       1
    46   21   40       1
@<TRIPOS>SUBSTRUCTURE
     1 ANP1003     1 GROUP             4 E     ANP     0 **** ANP E1003
