@<TRIPOS>MOLECULE
4eo3_FMN_1_ligand
   50    52     1     0     0
SMALL
NO_CHARGES


@<TRIPOS>ATOM
     1 N1         -17.8590     2.6600    24.4400 N.2          1 FMN401   0.0000
     2 C2         -17.3650     2.4730    25.7990 C.2          1 FMN401   0.0000
     3 O2         -18.2040     2.1370    26.8160 O.2          1 FMN401   0.0000
     4 N3         -15.9990     2.6190    26.0930 N.pl3        1 FMN401   0.0000
     5 C4         -15.1210     2.9670    25.1140 C.2          1 FMN401   0.0000
     6 O4         -13.8060     3.1160    25.4310 O.2          1 FMN401   0.0000
     7 C4A        -15.6040     3.1620    23.7310 C.2          1 FMN401   0.0000
     8 N5         -14.7030     3.5080    22.7530 N.2          1 FMN401   0.0000
     9 C5A        -15.1100     3.5040    21.4210 C.ar         1 FMN401   0.0000
    10 C6         -14.1300     3.7020    20.4530 C.ar         1 FMN401   0.0000
    11 C7         -14.4710     3.6560    19.1060 C.ar         1 FMN401   0.0000
    12 C7M        -13.4100     3.8540    18.0650 C.3          1 FMN401   0.0000
    13 C8         -15.7910     3.4130    18.7340 C.ar         1 FMN401   0.0000
    14 C8M        -16.1520     3.3610    17.2830 C.3          1 FMN401   0.0000
    15 C9         -16.7770     3.2260    19.6970 C.ar         1 FMN401   0.0000
    16 C9A        -16.4480     3.2640    21.0730 C.ar         1 FMN401   0.0000
    17 N10        -17.4190     3.1160    22.1020 N.pl3        1 FMN401   0.0000
    18 C10        -16.9740     3.0580    23.4290 C.2          1 FMN401   0.0000
    19 C1'        -18.8300     2.8280    21.7920 C.3          1 FMN401   0.0000
    20 C2'        -19.4980     4.1310    21.3940 C.3          1 FMN401   0.0000
    21 O2'        -19.6900     4.9480    22.4940 O.3          1 FMN401   0.0000
    22 C3'        -20.8370     3.8660    20.7080 C.3          1 FMN401   0.0000
    23 O3'        -20.6220     3.2520    19.4790 O.3          1 FMN401   0.0000
    24 C4'        -21.6660     5.1100    20.5040 C.3          1 FMN401   0.0000
    25 O4'        -22.1260     5.5960    21.7220 O.3          1 FMN401   0.0000
    26 C5'        -22.8510     4.8370    19.5930 C.3          1 FMN401   0.0000
    27 O5'        -23.5340     3.7270    20.0770 O.3          1 FMN401   0.0000
    28 P          -24.0240     2.6210    19.0430 P.3          1 FMN401   0.0000
    29 O1P        -24.9430     3.1680    18.0120 O.co2        1 FMN401   0.0000
    30 O2P        -24.7560     1.5710    19.7930 O.co2        1 FMN401  -1.0000
    31 O3P        -22.8490     2.0260    18.3430 O.co2        1 FMN401  -1.0000
    32 H1         -15.6710     2.4666    27.0253 H            1 FMN401   0.0000
    33 H2         -13.1838     3.8768    20.7254 H            1 FMN401   0.0000
    34 H7M1       -13.8200     3.7913    17.1551 H            1 FMN401   0.0000
    35 H7M2       -12.9930     4.7554    18.1813 H            1 FMN401   0.0000
    36 H7M3       -12.7095     3.1473    18.1644 H            1 FMN401   0.0000
    37 H8M1       -17.1308     3.1789    17.1893 H            1 FMN401   0.0000
    38 H8M2       -15.9334     4.2372    16.8535 H            1 FMN401   0.0000
    39 H8M3       -15.6331     2.6322    16.8363 H            1 FMN401   0.0000
    40 H9         -17.7229     3.0639    19.4158 H            1 FMN401   0.0000
    41 H1'1       -19.2834     2.4464    22.5975 H            1 FMN401   0.0000
    42 H1'2       -18.8850     2.1741    21.0374 H            1 FMN401   0.0000
    43 H2'        -18.9013     4.6069    20.7479 H            1 FMN401   0.0000
    44 H13        -20.5010     5.5152    22.3504 H            1 FMN401   0.0000
    45 H3'        -21.3599     3.2358    21.2820 H            1 FMN401   0.0000
    46 H15        -21.3987     2.6610    19.2612 H            1 FMN401   0.0000
    47 H4'        -21.0916     5.8093    20.0785 H            1 FMN401   0.0000
    48 H17        -22.6898     4.9002    22.1670 H            1 FMN401   0.0000
    49 H5'1       -22.5276     4.6554    18.6643 H            1 FMN401   0.0000
    50 H5'2       -23.4598     5.6303    19.5848 H            1 FMN401   0.0000
@<TRIPOS>BOND
     1    1    2       1
     2    1   18       2
     3    2    3       2
     4    2    4       1
     5    4    5       1
     6    5    6       2
     7    5    7       1
     8    7    8       2
     9    7   18       1
    10    8    9       1
    11    9   10      ar
    12    9   16      ar
    13   10   11      ar
    14   11   12       1
    15   11   13      ar
    16   13   14       1
    17   13   15      ar
    18   15   16      ar
    19   16   17       1
    20   17   18       1
    21   17   19       1
    22   19   20       1
    23   20   21       1
    24   20   22       1
    25   22   23       1
    26   22   24       1
    27   24   25       1
    28   24   26       1
    29   26   27       1
    30   27   28       1
    31   28   29      ar
    32   28   30      ar
    33   28   31      ar
    34    4   32       1
    35   10   33       1
    36   12   34       1
    37   12   35       1
    38   12   36       1
    39   14   37       1
    40   14   38       1
    41   14   39       1
    42   15   40       1
    43   19   41       1
    44   19   42       1
    45   20   43       1
    46   21   44       1
    47   22   45       1
    48   23   46       1
    49   24   47       1
    50   25   48       1
    51   26   49       1
    52   26   50       1
@<TRIPOS>SUBSTRUCTURE
     1 FMN401      1 GROUP             4 A     FMN     0 **** FMN A 401
