@<TRIPOS>MOLECULE
./coach420/1e4g/ligand.pdb
 31 33 0 0 0
SMALL
GASTEIGER

@<TRIPOS>ATOM
      1  PG        26.0210   11.4390   48.9640 P.3   500  ATP500      0.5373
      2  O1G       25.1760   10.4510   48.2700 O.3   500  ATP500     -0.1143
      3  O2G       26.6070   10.9650   50.2180 O.3   500  ATP500     -0.1143
      4  O3G       27.0390   12.0340   48.0170 O.2   500  ATP500     -0.2221
      5  PB        25.2030   14.2590   49.4440 P.3   500  ATP500      0.2277
      6  O1B       23.9800   14.8810   48.8520 O.2   500  ATP500     -0.5168
      7  O2B       26.5090   14.6050   48.8630 O.3   500  ATP500     -0.4368
      8  O3B       25.0210   12.6220   49.4470 O.3   500  ATP500     -0.2258
      9  PA        26.0120   15.1920   52.0680 P.3   500  ATP500      0.2189
     10  O1A       27.1800   14.3150   52.2010 O.3   500  ATP500     -0.4371
     11  O2A       26.2150   16.6520   51.8340 O.2   500  ATP500     -0.5170
     12  O3A       25.1100   14.5240   50.9590 O.3   500  ATP500     -0.2700
     13  O5'       25.0740   14.9600   53.2910 O.3   500  ATP500     -0.3112
     14  C5'       23.8570   15.6810   53.4680 C.3   500  ATP500      0.1813
     15  C4'       23.3940   15.5040   54.8700 C.3   500  ATP500      0.1801
     16  O4'       24.4320   16.0300   55.7190 O.3   500  ATP500     -0.3306
     17  C3'       22.1230   16.2520   55.1950 C.3   500  ATP500      0.2161
     18  O3'       21.0420   15.3230   55.0560 O.3   500  ATP500     -0.2175
     19  C2'       22.3640   16.7300   56.6030 C.3   500  ATP500      0.2337
     20  O2'       21.7570   15.9310   57.6100 O.3   500  ATP500     -0.2155
     21  C1'       23.8880   16.7470   56.8280 C.3   500  ATP500      0.2409
     22  N9        24.4290   18.1190   56.8250 N.ar  500  ATP500     -0.2693
     23  C8        24.5680   19.0020   55.7800 C.ar  500  ATP500      0.1816
     24  N7        25.0780   20.1530   56.0930 N.ar  500  ATP500     -0.2193
     25  C5        25.2950   20.0230   57.4490 C.ar  500  ATP500      0.1518
     26  C6        25.8300   20.9080   58.4280 C.ar  500  ATP500      0.1919
     27  N6        26.2360   22.1260   58.0940 N.pl3 500  ATP500     -0.1054
     28  N1        25.9190   20.4810   59.7190 N.ar  500  ATP500     -0.2040
     29  C2        25.5010   19.2390   60.0350 C.ar  500  ATP500      0.2016
     30  N3        24.9770   18.3070   59.2140 N.ar  500  ATP500     -0.2048
     31  C4        24.9020   18.7770   57.9110 C.ar  500  ATP500      0.1692
@<TRIPOS>BOND
     1     1     4    2
     2     1     2    1
     3     1     8    1
     4     1     3    1
     5     5     6    2
     6     5     7    1
     7     5     8    1
     8     5    12    1
     9     9    12    1
    10     9    11    2
    11     9    10    1
    12     9    13    1
    13    13    14    1
    14    14    15    1
    15    15    17    1
    16    15    16    1
    17    16    21    1
    18    17    18    1
    19    17    19    1
    20    19    21    1
    21    19    20    1
    22    21    22    1
    23    22    23   ar
    24    22    31   ar
    25    23    24   ar
    26    24    25   ar
    27    25    31   ar
    28    25    26   ar
    29    26    27    1
    30    26    28   ar
    31    28    29   ar
    32    29    30   ar
    33    30    31   ar
