@<TRIPOS>MOLECULE
1jq3_AAT_2_ligand
   62    64     1     0     0
SMALL
NO_CHARGES


@<TRIPOS>ATOM
     1 N           48.5880    -1.6020    26.8510 N.4          1 AAT801   1.0000
     2 CA          47.9560    -0.4160    27.1620 C.3          1 AAT801   0.0000
     3 CB          48.2170     0.5700    26.1170 C.3          1 AAT801   0.0000
     4 CG          47.9220     0.0190    24.8070 C.3          1 AAT801   0.0000
     5 SD          49.0830     0.6440    23.5440 S.3          1 AAT801   0.0000
     6 C5'         48.9060    -0.5570    22.1820 C.3          1 AAT801   0.0000
     7 C4'         49.8540    -0.4740    20.9970 C.3          1 AAT801   0.0000
     8 O4'         49.5660    -1.4860    20.1270 O.3          1 AAT801   0.0000
     9 C3'         49.7140     0.7440    20.2280 C.3          1 AAT801   0.0000
    10 O3'         50.8550     1.4990    20.5050 O.3          1 AAT801   0.0000
    11 C2'         49.6900     0.3160    18.6930 C.3          1 AAT801   0.0000
    12 O2'         50.5170     0.9760    17.7790 O.3          1 AAT801   0.0000
    13 C1'         49.9020    -1.1760    18.7980 C.3          1 AAT801   0.0000
    14 N9          49.0440    -1.9290    17.8780 N.pl3        1 AAT801   0.0000
    15 C8          48.1500    -1.4280    16.9610 C.2          1 AAT801   0.0000
    16 N7          48.0470    -2.0610    15.7610 N.2          1 AAT801   0.0000
    17 C5          48.9180    -3.0290    15.8450 C.ar         1 AAT801   0.0000
    18 C6          49.2730    -4.0830    14.8420 C.ar         1 AAT801   0.0000
    19 N6          48.6770    -4.1880    13.5770 N.pl3        1 AAT801   0.0000
    20 N1          50.2570    -5.0420    15.1380 N.ar         1 AAT801   0.0000
    21 C2          50.8410    -4.9170    16.4090 C.ar         1 AAT801   0.0000
    22 N3          50.5720    -3.9690    17.4180 N.ar         1 AAT801   0.0000
    23 C4          49.5900    -3.0110    17.1290 C.ar         1 AAT801   0.0000
    24 C11         46.5100     0.3810    24.4770 C.3          1 AAT801   0.0000
    25 C12         45.2460     0.1200    25.2820 C.3          1 AAT801   0.0000
    26 C13         44.2620     1.2710    25.2510 C.3          1 AAT801   0.0000
    27 C14         42.7760     1.0670    24.9990 C.3          1 AAT801   0.0000
    28 C15         41.8040     2.2260    24.9780 C.3          1 AAT801   0.0000
    29 N16         40.4080     2.3380    24.7770 N.4          1 AAT801   1.0000
    30 H1          48.8360    -2.0787    27.6944 H            1 AAT801   0.0000
    31 H2          47.9720    -2.1766    26.3121 H            1 AAT801   0.0000
    32 HA1         48.3023    -0.0740    28.0356 H            1 AAT801   0.0000
    33 HA2         46.9709    -0.5729    27.2323 H            1 AAT801   0.0000
    34 HB1         49.1799     0.8377    26.1513 H            1 AAT801   0.0000
    35 HB2         47.6419     1.3732    26.2724 H            1 AAT801   0.0000
    36 HG          47.9982    -0.9771    24.8510 H            1 AAT801   0.0000
    37 H5'1        47.9783    -0.4572    21.8223 H            1 AAT801   0.0000
    38 H5'2        49.0132    -1.4683    22.5795 H            1 AAT801   0.0000
    39 H4'         50.7978    -0.5634    21.3153 H            1 AAT801   0.0000
    40 H3'         48.8820     1.2383    20.4798 H            1 AAT801   0.0000
    41 H12         51.5725     1.2727    19.8462 H            1 AAT801   0.0000
    42 H2'         48.7512     0.4486    18.3750 H            1 AAT801   0.0000
    43 H14         51.3975     0.5050    17.7256 H            1 AAT801   0.0000
    44 H1'         50.8623    -1.3973    18.6279 H            1 AAT801   0.0000
    45 H16         47.5932    -0.6239    17.1695 H            1 AAT801   0.0000
    46 H17         48.9578    -4.9154    12.9508 H            1 AAT801   0.0000
    47 H18         47.9712    -3.5355    13.3011 H            1 AAT801   0.0000
    48 H19         51.5443    -5.5931    16.6289 H            1 AAT801   0.0000
    49 H20         46.3394    -0.0586    23.5952 H            1 AAT801   0.0000
    50 H21         46.5286     1.3736    24.3566 H            1 AAT801   0.0000
    51 H22         45.5055    -0.0492    26.2328 H            1 AAT801   0.0000
    52 H23         44.7956    -0.6916    24.9099 H            1 AAT801   0.0000
    53 H24         44.5827     1.8917    24.5356 H            1 AAT801   0.0000
    54 H25         44.3338     1.7222    26.1405 H            1 AAT801   0.0000
    55 H26         42.4536     0.4432    25.7110 H            1 AAT801   0.0000
    56 H27         42.7012     0.6217    24.1068 H            1 AAT801   0.0000
    57 H28         42.1817     2.8235    24.2706 H            1 AAT801   0.0000
    58 H29         41.9365     2.6469    25.8754 H            1 AAT801   0.0000
    59 H30         40.1380     3.2987    24.8414 H            1 AAT801   0.0000
    60 H31         40.1723     1.9855    23.8713 H            1 AAT801   0.0000
    61 H32         49.4141    -1.4105    26.3211 H            1 AAT801   0.0000
    62 H33         39.9271     1.8089    25.4761 H            1 AAT801   0.0000
@<TRIPOS>BOND
     1    1    2       1
     2    2    3       1
     3    3    4       1
     4    4    5       1
     5    4   24       1
     6    5    6       1
     7    6    7       1
     8    7    8       1
     9    7    9       1
    10    8   13       1
    11    9   10       1
    12    9   11       1
    13   11   12       1
    14   11   13       1
    15   13   14       1
    16   14   15       1
    17   14   23       1
    18   15   16       2
    19   16   17       1
    20   17   18      ar
    21   17   23      ar
    22   18   19       1
    23   18   20      ar
    24   20   21      ar
    25   21   22      ar
    26   22   23      ar
    27   24   25       1
    28   25   26       1
    29   26   27       1
    30   27   28       1
    31   28   29       1
    32    1   30       1
    33    1   31       1
    34    2   32       1
    35    2   33       1
    36    3   34       1
    37    3   35       1
    38    4   36       1
    39    6   37       1
    40    6   38       1
    41    7   39       1
    42    9   40       1
    43   10   41       1
    44   11   42       1
    45   12   43       1
    46   13   44       1
    47   15   45       1
    48   19   46       1
    49   19   47       1
    50   21   48       1
    51   24   49       1
    52   24   50       1
    53   25   51       1
    54   25   52       1
    55   26   53       1
    56   26   54       1
    57   27   55       1
    58   27   56       1
    59   28   57       1
    60   28   58       1
    61   29   59       1
    62   29   60       1
    63    1   61       1
    64   29   62       1
@<TRIPOS>SUBSTRUCTURE
     1 AAT801      1 GROUP             4 C     AAT     0 **** AAT C 801
