@<TRIPOS>MOLECULE
./coach420/2qv7/ligand.pdb
 27 25 0 0 0
SMALL
GASTEIGER

@<TRIPOS>ATOM
      1 MG         70.0260   20.9020   16.0030 Mg    501  MG501       0.0000
      2  O1B       70.8080   43.5390   27.1680 O.3   500  ADP500      0.0000
      3  O2B       70.6270   41.5660   25.6060 O.3   500  ADP500      0.0000
      4  O3B       71.1460   41.1530   28.0250 O.3   500  ADP500      0.0000
      5  PA        67.9850   40.7810   27.7640 P.3   500  ADP500      0.0000
      6  O1A       68.7400   39.5050   27.5200 O.3   500  ADP500      0.0000
      7  O2A       66.6410   40.9810   27.1110 O.2   500  ADP500      0.0000
      8  O3A       68.9060   42.0640   27.3840 O.3   500  ADP500      0.0000
      9  O5'       67.7130   40.9590   29.3380 O.3   500  ADP500      0.0000
     10  C5'       68.7080   40.7000   30.3260 C.3   500  ADP500      0.0000
     11  C4'       68.0500   40.2100   31.6140 C.3   500  ADP500      0.0000
     12  O4'       67.5430   41.3110   32.3770 O.3   500  ADP500      0.0000
     13  C3'       66.8570   39.2950   31.3610 C.3   500  ADP500      0.0000
     14  O3'       67.2400   37.9170   31.4470 O.3   500  ADP500      0.0000
     15  C2'       65.8590   39.6420   32.4460 C.3   500  ADP500      0.0000
     16  O2'       65.7960   38.5660   33.3790 O.3   500  ADP500      0.0000
     17  C1'       66.4010   40.8880   33.1350 C.3   500  ADP500      0.0000
     18  N9        65.4110   41.9940   33.2010 N.ar  500  ADP500      0.0000
     19  C8        64.1820   42.0220   32.6460 C.ar  500  ADP500      0.0000
     20  N7        63.5550   43.1980   32.8950 N.ar  500  ADP500      0.0000
     21  C5        64.3920   43.9540   33.6230 C.ar  500  ADP500      0.0000
     22  C6        64.3600   45.3070   34.2210 C.ar  500  ADP500      0.0000
     23  N6        63.2700   46.0990   34.0770 N.pl3 500  ADP500      0.0000
     24  N1        65.4530   45.7240   34.9120 N.ar  500  ADP500      0.0000
     25  C2        66.5440   44.9430   35.0540 C.ar  500  ADP500      0.0000
     26  N3        66.6380   43.7030   34.5330 N.ar  500  ADP500      0.0000
     27  C4        65.6150   43.1590   33.8240 C.ar  500  ADP500      0.0000
@<TRIPOS>BOND
     1     5     7    2
     2     5     8    1
     3     5     6    1
     4     5     9    1
     5     9    10    1
     6    10    11    1
     7    11    13    1
     8    11    12    1
     9    12    17    1
    10    13    14    1
    11    13    15    1
    12    15    17    1
    13    15    16    1
    14    17    18    1
    15    18    19   ar
    16    18    27   ar
    17    19    20   ar
    18    20    21   ar
    19    21    27   ar
    20    21    22   ar
    21    22    23    1
    22    22    24   ar
    23    24    25   ar
    24    25    26   ar
    25    26    27   ar
