@<TRIPOS>MOLECULE
4g2r_H1L_3_ligand
   34    35     1     0     0
SMALL
NO_CHARGES


@<TRIPOS>ATOM
     1 O1A        -35.3870   -27.0170    16.9940 O.co2        1 H1L501   0.0000
     2 C1         -34.3800   -26.2480    17.0080 C.2          1 H1L501   0.0000
     3 O1B        -33.3280   -26.5670    16.3730 O.co2        1 H1L501  -1.0000
     4 C2         -34.4240   -24.9530    17.7620 C.3          1 H1L501   0.0000
     5 C2A        -34.9740   -23.9030    16.8550 C.3          1 H1L501   0.0000
     6 O2         -35.2260   -25.0190    18.8850 O.3          1 H1L501   0.0000
     7 C3         -34.7750   -25.4890    20.0960 C.ar         1 H1L501   0.0000
     8 C4         -35.4210   -25.1020    21.2710 C.ar         1 H1L501   0.0000
     9 C5         -34.9780   -25.5840    22.4950 C.ar         1 H1L501   0.0000
    10 C6         -33.6900   -26.3520    20.1300 C.ar         1 H1L501   0.0000
    11 C7         -33.2510   -26.8290    21.3530 C.ar         1 H1L501   0.0000
    12 C8         -33.8710   -26.4390    22.5330 C.ar         1 H1L501   0.0000
    13 O8         -33.3860   -26.9810    23.7150 O.3          1 H1L501   0.0000
    14 C9         -32.8500   -26.1480    24.6910 C.ar         1 H1L501   0.0000
    15 N9         -32.8470   -24.8060    24.6000 N.ar         1 H1L501   0.0000
    16 C10        -32.3260   -24.0450    25.5720 C.ar         1 H1L501   0.0000
    17 C11        -31.7720   -24.6120    26.7140 C.ar         1 H1L501   0.0000
    18 C12        -31.1750   -23.7510    27.7840 C.3          1 H1L501   0.0000
    19 F1         -31.0300   -24.4910    28.8760 F            1 H1L501   0.0000
    20 F2         -31.9440   -22.6950    28.0350 F            1 H1L501   0.0000
    21 F3         -29.9800   -23.3300    27.4000 F            1 H1L501   0.0000
    22 C13        -31.7550   -26.0090    26.8330 C.ar         1 H1L501   0.0000
    23 C14        -32.3030   -26.7860    25.8060 C.ar         1 H1L501   0.0000
    24 CL1        -32.3220   -28.5330    25.8780 Cl           1 H1L501   0.0000
    25 H1         -33.4960   -24.6992    18.0347 H            1 H1L501   0.0000
    26 H2A1       -35.0115   -23.0295    17.3404 H            1 H1L501   0.0000
    27 H2A2       -34.3841   -23.8133    16.0525 H            1 H1L501   0.0000
    28 H2A3       -35.8949   -24.1626    16.5643 H            1 H1L501   0.0000
    29 H5         -36.2018   -24.4785    21.2312 H            1 H1L501   0.0000
    30 H6         -35.4447   -25.3232    23.3401 H            1 H1L501   0.0000
    31 H7         -33.2319   -26.6254    19.2842 H            1 H1L501   0.0000
    32 H8         -32.4778   -27.4623    21.3874 H            1 H1L501   0.0000
    33 H9         -32.3359   -23.0499    25.4740 H            1 H1L501   0.0000
    34 H10        -31.3568   -26.4441    27.6405 H            1 H1L501   0.0000
@<TRIPOS>BOND
     1    1    2      ar
     2    2    3      ar
     3    2    4       1
     4    4    5       1
     5    4    6       1
     6    6    7       1
     7    7    8      ar
     8    7   10      ar
     9    8    9      ar
    10    9   12      ar
    11   10   11      ar
    12   11   12      ar
    13   12   13       1
    14   13   14       1
    15   14   15      ar
    16   14   23      ar
    17   15   16      ar
    18   16   17      ar
    19   17   18       1
    20   17   22      ar
    21   18   19       1
    22   18   20       1
    23   18   21       1
    24   22   23      ar
    25   23   24       1
    26   22   34       1
    27    4   25       1
    28    5   26       1
    29    5   27       1
    30    5   28       1
    31    8   29       1
    32    9   30       1
    33   10   31       1
    34   11   32       1
    35   16   33       1
@<TRIPOS>SUBSTRUCTURE
     1 H1L501      1 GROUP             4 B     H1L     0 **** H1L B 501
