@<TRIPOS>MOLECULE
1af0_0Z9_1_ligand
   34    33     1     0     0
SMALL
NO_CHARGES


@<TRIPOS>ATOM
     1 N          -14.3290    21.2140    33.1390 N.4          1 0Z9674   1.0000
     2 CA         -13.9520    20.1990    34.1120 C.3          1 0Z9674   0.0000
     3 C          -13.5150    20.8000    35.4460 C.2          1 0Z9674   0.0000
     4 O          -12.6260    21.6530    35.4600 O.2          1 0Z9674   0.0000
     5 CB         -12.7580    19.3930    33.5720 C.3          1 0Z9674   0.0000
     6 CG         -13.0420    17.9730    33.0920 C.3          1 0Z9674   0.0000
     7 CD1        -11.8110    17.3880    32.4150 C.3          1 0Z9674   0.0000
     8 CD2        -13.5000    17.0950    34.2460 C.3          1 0Z9674   0.0000
     9 N1         -14.0720    20.3220    36.5500 N.am         1 0Z9674   0.0000
    10 CA1        -13.6460    20.8170    37.8560 C.3          1 0Z9674   0.0000
    11 CB1        -14.6580    20.4380    38.9220 C.3          1 0Z9674   0.0000
    12 C1         -12.2680    20.2400    38.1560 C.2          1 0Z9674   0.0000
    13 O1         -12.0120    19.0410    38.2340 O.2          1 0Z9674   0.0000
    14 N2         -11.2980    21.1380    38.2950 N.am         1 0Z9674   0.0000
    15 OH         -10.0410    20.5890    38.5600 O.3          1 0Z9674  -1.0000
    16 H1         -14.6061    20.7715    32.2861 H            1 0Z9674   0.0000
    17 H2         -15.0911    21.7529    33.4978 H            1 0Z9674   0.0000
    18 HA         -14.7251    19.5832    34.2641 H            1 0Z9674   0.0000
    19 HB1        -12.0783    19.3341    34.3031 H            1 0Z9674   0.0000
    20 HB2        -12.3749    19.9013    32.8007 H            1 0Z9674   0.0000
    21 HG         -13.7797    18.0129    32.4181 H            1 0Z9674   0.0000
    22 HD11       -12.0109    16.4583    32.1057 H            1 0Z9674   0.0000
    23 HD12       -11.5618    17.9543    31.6294 H            1 0Z9674   0.0000
    24 HD13       -11.0514    17.3670    33.0651 H            1 0Z9674   0.0000
    25 HD21       -13.6804    16.1705    33.9102 H            1 0Z9674   0.0000
    26 HD22       -12.7849    17.0624    34.9443 H            1 0Z9674   0.0000
    27 HD23       -14.3359    17.4747    34.6424 H            1 0Z9674   0.0000
    28 H13        -14.7839    19.6224    36.4883 H            1 0Z9674   0.0000
    29 HA1        -13.5769    21.8138    37.8165 H            1 0Z9674   0.0000
    30 HB11       -14.3527    20.7835    39.8094 H            1 0Z9674   0.0000
    31 HB12       -15.5460    20.8385    38.6960 H            1 0Z9674   0.0000
    32 HB13       -14.7420    19.4424    38.9629 H            1 0Z9674   0.0000
    33 H18        -11.4546    22.1225    38.2166 H            1 0Z9674   0.0000
    34 H19        -13.5488    21.8148    32.9647 H            1 0Z9674   0.0000
@<TRIPOS>BOND
     1    1    2       1
     2    2    3       1
     3    2    5       1
     4    3    4       2
     5    3    9      am
     6    5    6       1
     7    6    7       1
     8    6    8       1
     9    9   10       1
    10   10   11       1
    11   10   12       1
    12   12   13       2
    13   12   14      am
    14   14   15       1
    15    1   16       1
    16    1   17       1
    17    2   18       1
    18    5   19       1
    19    5   20       1
    20    6   21       1
    21    7   22       1
    22    7   23       1
    23    7   24       1
    24    8   25       1
    25    8   26       1
    26    8   27       1
    27    9   28       1
    28   10   29       1
    29   11   30       1
    30   11   31       1
    31   11   32       1
    32   14   33       1
    33    1   34       1
@<TRIPOS>SUBSTRUCTURE
     1 0Z9674      1 GROUP             4 A     0Z9     0 **** 0Z9 A 674
