@<TRIPOS>MOLECULE
3rzp_PRF_3_ligand
   23    24     1     0     0
SMALL
NO_CHARGES


@<TRIPOS>ATOM
     1 N1         -23.0300    -2.6420     3.9500 N.pl3        1 PRF290   0.0000
     2 C2         -23.8090    -2.6530     2.8480 C.2          1 PRF290   0.0000
     3 N3         -24.7580    -3.5910     2.6540 N.2          1 PRF290   0.0000
     4 C4         -24.9440    -4.5670     3.6070 C.2          1 PRF290   0.0000
     5 C5         -24.1590    -4.5910     4.7390 C.2          1 PRF290   0.0000
     6 C6         -23.1640    -3.5900     4.9070 C.2          1 PRF290   0.0000
     7 O6         -22.3800    -3.5980     6.0010 O.2          1 PRF290   0.0000
     8 C7         -24.5770    -5.7090     5.5190 C.2          1 PRF290   0.0000
     9 C10        -24.0040    -6.1360     6.8310 C.3          1 PRF290   0.0000
    10 N11        -22.5740    -6.2400     6.7150 N.4          1 PRF290   1.0000
    11 C8         -25.6060    -6.3220     4.8000 C.2          1 PRF290   0.0000
    12 N9         -25.8120    -5.6220     3.6690 N.pl3        1 PRF290   0.0000
    13 N2         -23.6360    -1.6930     1.9200 N.pl3        1 PRF290   0.0000
    14 H1         -22.3438    -1.9231     4.0612 H            1 PRF290   0.0000
    15 H2         -24.3837    -7.0248     7.0878 H            1 PRF290   0.0000
    16 H3         -24.2339    -5.4604     7.5315 H            1 PRF290   0.0000
    17 H4         -22.1883    -6.5258     7.5923 H            1 PRF290   0.0000
    18 H5         -22.3447    -6.9155     6.0142 H            1 PRF290   0.0000
    19 H6         -26.1053    -7.1424     5.0786 H            1 PRF290   0.0000
    20 H7         -26.4988    -5.8411     2.9759 H            1 PRF290   0.0000
    21 H8         -24.2039    -1.6850     1.0970 H            1 PRF290   0.0000
    22 H9         -22.9396    -0.9880     2.0538 H            1 PRF290   0.0000
    23 H10        -22.1949    -5.3511     6.4579 H            1 PRF290   0.0000
@<TRIPOS>BOND
     1    1    2       1
     2    1    6       1
     3    2    3       2
     4    2   13       1
     5    3    4       1
     6    4    5       2
     7    4   12       1
     8    5    6       1
     9    5    8       1
    10    6    7       2
    11    8    9       1
    12    8   11       2
    13    9   10       1
    14   11   12       1
    15    1   14       1
    16    9   15       1
    17    9   16       1
    18   10   17       1
    19   10   18       1
    20   11   19       1
    21   12   20       1
    22   13   21       1
    23   13   22       1
    24   10   23       1
@<TRIPOS>SUBSTRUCTURE
     1 PRF290      1 GROUP             4 C     PRF     0 **** PRF C 290
