@<TRIPOS>MOLECULE
2c1z_KMP_1_ligand
   31    33     1     0     0
SMALL
NO_CHARGES


@<TRIPOS>ATOM
     1 C1           5.3060   -17.2830    24.8250 C.ar         1 KMP1456   0.0000
     2 C2           4.6790   -16.2620    25.5490 C.ar         1 KMP1456   0.0000
     3 C3           3.3450   -15.9590    25.2920 C.ar         1 KMP1456   0.0000
     4 C4           2.6090   -16.6640    24.3290 C.ar         1 KMP1456   0.0000
     5 C5           3.2330   -17.6800    23.6080 C.ar         1 KMP1456   0.0000
     6 C6           4.5700   -17.9960    23.8640 C.ar         1 KMP1456   0.0000
     7 C9           2.7050   -14.9410    25.9940 C.2          1 KMP1456   0.0000
     8 C10          1.3780   -14.6680    25.7010 C.2          1 KMP1456   0.0000
     9 C11          0.7660   -15.4390    24.6920 C.2          1 KMP1456   0.0000
    10 C14         -0.6790   -15.2490    24.3640 C.ar         1 KMP1456   0.0000
    11 C15         -1.4260   -16.4020    24.0580 C.ar         1 KMP1456   0.0000
    12 C16         -2.7950   -16.2940    23.7740 C.ar         1 KMP1456   0.0000
    13 C17         -3.3990   -15.0320    23.8190 C.ar         1 KMP1456   0.0000
    14 C18         -2.6660   -13.8940    24.1520 C.ar         1 KMP1456   0.0000
    15 C19         -1.3030   -13.9990    24.4310 C.ar         1 KMP1456   0.0000
    16 O12          1.3960   -16.3760    24.0960 O.2          1 KMP1456   0.0000
    17 O13          3.3140   -14.2960    26.8660 O.2          1 KMP1456   0.0000
    18 O24         -4.7220   -14.9090    23.5710 O.3          1 KMP1456   0.0000
    19 O27          0.7340   -13.6620    26.3860 O.3          1 KMP1456   0.0000
    20 O29          5.1530   -19.0020    23.1450 O.3          1 KMP1456   0.0000
    21 O30          5.3600   -15.5470    26.5130 O.3          1 KMP1456   0.0000
    22 H1           6.2675   -17.5025    24.9901 H            1 KMP1456   0.0000
    23 H2           2.7249   -18.1823    22.9084 H            1 KMP1456   0.0000
    24 H3          -0.9809   -17.2974    24.0431 H            1 KMP1456   0.0000
    25 H4          -3.3313   -17.1058    23.5430 H            1 KMP1456   0.0000
    26 H5          -3.1171   -13.0024    24.1909 H            1 KMP1456   0.0000
    27 H6          -0.7756   -13.1858    24.6773 H            1 KMP1456   0.0000
    28 H7          -5.1550   -14.0082    23.6027 H            1 KMP1456   0.0000
    29 H8          -0.2233   -13.4538    26.1853 H            1 KMP1456   0.0000
    30 H9           6.1125   -19.2367    23.3007 H            1 KMP1456   0.0000
    31 H10          4.8943   -14.8213    27.0194 H            1 KMP1456   0.0000
@<TRIPOS>BOND
     1    1    2      ar
     2    1    6      ar
     3    2    3      ar
     4    2   21       1
     5    3    4      ar
     6    3    7       1
     7    4    5      ar
     8    4   16       1
     9    5    6      ar
    10    6   20       1
    11    7    8       1
    12    7   17       2
    13    8    9       2
    14    8   19       1
    15    9   10       1
    16    9   16       1
    17   10   11      ar
    18   10   15      ar
    19   11   12      ar
    20   12   13      ar
    21   13   14      ar
    22   13   18       1
    23   14   15      ar
    24    1   22       1
    25    5   23       1
    26   11   24       1
    27   12   25       1
    28   14   26       1
    29   15   27       1
    30   18   28       1
    31   19   29       1
    32   20   30       1
    33   21   31       1
@<TRIPOS>SUBSTRUCTURE
     1 KMP1456     1 GROUP             4 A     KMP     0 **** KMP A1456
