@<TRIPOS>MOLECULE
1ije_GDP_1_ligand
   37    39     1     0     0
SMALL
NO_CHARGES


@<TRIPOS>ATOM
     1 O3A         37.0360    39.3350    36.4840 O.co2        1 GDP507   0.0000
     2 PA          36.0790    40.5080    36.5930 P.3          1 GDP507   0.0000
     3 O1A         34.6060    40.0750    36.8940 O.co2        1 GDP507  -1.0000
     4 O2A         36.2360    41.5570    35.5660 O.co2        1 GDP507  -1.0000
     5 O5'         36.4960    41.3550    37.9310 O.3          1 GDP507   0.0000
     6 C5'         37.7810    42.0280    38.0060 C.3          1 GDP507   0.0000
     7 C4'         38.1910    42.8310    39.2380 C.3          1 GDP507   0.0000
     8 O4'         37.7520    42.1270    40.4900 O.3          1 GDP507   0.0000
     9 C3'         39.6890    43.0200    39.4480 C.3          1 GDP507   0.0000
    10 O3'         40.0480    44.1660    40.2190 O.3          1 GDP507   0.0000
    11 C2'         40.0920    41.7230    40.1280 C.3          1 GDP507   0.0000
    12 O2'         41.3720    41.8040    40.7730 O.3          1 GDP507   0.0000
    13 C1'         38.9280    41.5110    41.0870 C.3          1 GDP507   0.0000
    14 N9          38.6310    40.1210    41.5670 N.pl3        1 GDP507   0.0000
    15 C8          38.0610    39.0260    40.9600 C.2          1 GDP507   0.0000
    16 N7          37.9700    37.9500    41.7240 N.2          1 GDP507   1.0000
    17 C5          38.5400    38.3990    42.9490 C.2          1 GDP507   0.0000
    18 C6          38.7330    37.6870    44.1880 C.2          1 GDP507   0.0000
    19 O6          38.4520    36.5290    44.4530 O.2          1 GDP507   0.0000
    20 N1          39.3430    38.5110    45.1770 N.pl3        1 GDP507   0.0000
    21 C2          39.7020    39.8380    44.9720 C.2          1 GDP507   0.0000
    22 N2          40.2630    40.4400    46.0420 N.pl3        1 GDP507   0.0000
    23 N3          39.5230    40.4970    43.8220 N.2          1 GDP507   0.0000
    24 C4          38.9340    39.7150    42.8560 C.2          1 GDP507   0.0000
    25 H5'1        37.8130    42.6616    37.2330 H            1 GDP507   0.0000
    26 H5'2        38.4773    41.3204    37.8861 H            1 GDP507   0.0000
    27 H4'         37.7529    43.7291    39.2003 H            1 GDP507   0.0000
    28 H3'         40.1386    43.0735    38.5564 H            1 GDP507   0.0000
    29 H5          41.0432    44.2110    40.3057 H            1 GDP507   0.0000
    30 H2'         40.1058    40.9846    39.4538 H            1 GDP507   0.0000
    31 H7          41.5853    40.9262    41.2019 H            1 GDP507   0.0000
    32 H1'         39.1391    42.0481    41.9037 H            1 GDP507   0.0000
    33 H9          37.7398    39.0422    40.0131 H            1 GDP507   0.0000
    34 H10         39.5242    38.1097    46.0748 H            1 GDP507   0.0000
    35 H11         40.5521    41.3955    45.9836 H            1 GDP507   0.0000
    36 H12         40.3896    39.9305    46.8931 H            1 GDP507   0.0000
    37 H13         37.5961    37.0503    41.4986 H            1 GDP507   0.0000
@<TRIPOS>BOND
     1    1    2      ar
     2    2    3      ar
     3    2    4      ar
     4    2    5       1
     5    5    6       1
     6    6    7       1
     7    7    8       1
     8    7    9       1
     9    8   13       1
    10    9   10       1
    11    9   11       1
    12   11   12       1
    13   11   13       1
    14   13   14       1
    15   14   15       1
    16   14   24       1
    17   15   16       2
    18   16   17       1
    19   17   18       1
    20   17   24       2
    21   18   19       2
    22   18   20       1
    23   20   21       1
    24   21   22       1
    25   21   23       2
    26   23   24       1
    27   22   36       1
    28   22   35       1
    29    6   25       1
    30    6   26       1
    31    7   27       1
    32    9   28       1
    33   10   29       1
    34   11   30       1
    35   12   31       1
    36   13   32       1
    37   15   33       1
    38   20   34       1
    39   16   37       1
@<TRIPOS>SUBSTRUCTURE
     1 GDP507      1 GROUP             4 A     GDP     0 **** GDP A 507
