@<TRIPOS>MOLECULE
3iiq_JZA_2_ligand
   26    27     1     0     0
SMALL
NO_CHARGES


@<TRIPOS>ATOM
     1 C11          4.2650    35.7910   -53.0030 C.3          1 JZA324   0.0000
     2 C13          4.4930    37.1710   -53.6910 C.3          1 JZA324   0.0000
     3 O14          3.3270    37.8520   -54.1650 O.3          1 JZA324   0.0000
     4 C12          2.4810    36.9950   -54.9830 C.3          1 JZA324   0.0000
     5 C10          2.2030    35.5580   -54.4440 C.3          1 JZA324   0.0000
     6 N9           2.8630    35.3200   -53.1170 N.am         1 JZA324   0.0000
     7 C7           2.5940    33.9520   -52.5430 C.2          1 JZA324   0.0000
     8 O8           1.9360    33.0990   -53.1930 O.2          1 JZA324   0.0000
     9 N6           3.1330    33.7400   -51.1590 N.am         1 JZA324   0.0000
    10 C5           2.6490    32.2000   -51.0350 C.3          1 JZA324   0.0000
    11 C4           1.4680    32.6020   -50.0870 C.3          1 JZA324   0.0000
    12 S1           2.1080    34.2990   -49.9110 S.o2         1 JZA324   0.0000
    13 O2           2.7430    34.5470   -48.5560 O.2          1 JZA324   0.0000
    14 O3           1.0950    35.3690   -50.2980 O.2          1 JZA324   0.0000
    15 H1           4.4968    35.8744   -52.0338 H            1 JZA324   0.0000
    16 H2           4.8652    35.1162   -53.4324 H            1 JZA324   0.0000
    17 H3           5.0972    37.0233   -54.4740 H            1 JZA324   0.0000
    18 H4           4.9452    37.7688   -53.0291 H            1 JZA324   0.0000
    19 H5           2.9188    36.9029   -55.8773 H            1 JZA324   0.0000
    20 H6           1.5989    37.4539   -55.0894 H            1 JZA324   0.0000
    21 H7           2.5529    34.8923   -55.1031 H            1 JZA324   0.0000
    22 H8           1.2158    35.4371   -54.3403 H            1 JZA324   0.0000
    23 H9           3.3234    31.5994   -50.6055 H            1 JZA324   0.0000
    24 H10          2.3512    31.8006   -51.9020 H            1 JZA324   0.0000
    25 H11          1.4494    32.0889   -49.2289 H            1 JZA324   0.0000
    26 H12          0.5693    32.5550   -50.5230 H            1 JZA324   0.0000
@<TRIPOS>BOND
     1    1    2       1
     2    1    6       1
     3    2    3       1
     4    3    4       1
     5    4    5       1
     6    5    6       1
     7    6    7      am
     8    7    8       2
     9    7    9      am
    10    9   10       1
    11    9   12       1
    12   10   11       1
    13   11   12       1
    14   12   13       2
    15   12   14       2
    16    1   15       1
    17    1   16       1
    18    2   17       1
    19    2   18       1
    20    4   19       1
    21    4   20       1
    22    5   21       1
    23    5   22       1
    24   10   23       1
    25   10   24       1
    26   11   25       1
    27   11   26       1
@<TRIPOS>SUBSTRUCTURE
     1 JZA324      1 GROUP             4 B     JZA     0 **** JZA B 324
