@<TRIPOS>MOLECULE
2cdz_23D_1_ligand
   52    55     1     0     0
SMALL
NO_CHARGES


@<TRIPOS>ATOM
     1 CAS         41.9710    34.5680    20.1180 C.ar         1 23D1591   0.0000
     2 CAQ         40.6860    35.0210    20.4150 C.ar         1 23D1591   0.0000
     3 CL1         39.8820    34.5010    21.8760 Cl           1 23D1591   0.0000
     4 CAP         40.0460    35.9030    19.5480 C.ar         1 23D1591   0.0000
     5 CAO         40.6820    36.3050    18.3890 C.ar         1 23D1591   0.0000
     6 CAN         41.9590    35.8430    18.0990 C.ar         1 23D1591   0.0000
     7 CAM         42.6260    34.9610    18.9470 C.ar         1 23D1591   0.0000
     8 N6          43.8790    34.5450    18.6130 N.pl3        1 23D1591   0.0000
     9 C6          44.5710    33.6350    19.3020 C.ar         1 23D1591   0.0000
    10 N1          43.9120    32.8230    20.1050 N.ar         1 23D1591   0.0000
    11 C5          45.9500    33.4830    19.2240 C.ar         1 23D1591   0.0000
    12 N7          46.8890    34.1140    18.5260 N.2          1 23D1591   0.0000
    13 C8          48.0610    33.5740    18.8240 C.2          1 23D1591   0.0000
    14 N9          47.8530    32.5980    19.7120 N.pl3        1 23D1591   0.0000
    15 CAZ         48.9270    31.7740    20.2810 C.3          1 23D1591   0.0000
    16 CBA         49.4470    30.8930    19.1620 C.3          1 23D1591   0.0000
    17 C4          46.5540    32.4890    19.9960 C.ar         1 23D1591   0.0000
    18 N3          45.8120    31.6760    20.8080 N.ar         1 23D1591   0.0000
    19 C2          44.4830    31.8800    20.8520 C.ar         1 23D1591   0.0000
    20 N2          43.5270    31.2150    21.5050 N.pl3        1 23D1591   0.0000
    21 CAG         43.4810    30.4600    22.7580 C.3          1 23D1591   0.0000
    22 CAF         44.8250    30.2360    23.4270 C.3          1 23D1591   0.0000
    23 CAE         44.6620    29.3230    24.6610 C.3          1 23D1591   0.0000
    24 CAD         43.2180    28.8700    24.8820 C.3          1 23D1591   0.0000
    25 CAC         42.6390    28.2140    23.6150 C.3          1 23D1591   0.0000
    26 CAA         42.7520    29.1560    22.4060 C.3          1 23D1591   0.0000
    27 NAB         41.4060    29.5090    21.9380 N.4          1 23D1591   1.0000
    28 HAS         42.4327    33.9504    20.7546 H            1 23D1591   0.0000
    29 HAP         39.1308    36.2437    19.7631 H            1 23D1591   0.0000
    30 HAO         40.2219    36.9297    17.7580 H            1 23D1591   0.0000
    31 HAN         42.4108    36.1506    17.2616 H            1 23D1591   0.0000
    32 H5          44.3065    34.9455    17.8025 H            1 23D1591   0.0000
    33 H6          48.9467    33.8488    18.4497 H            1 23D1591   0.0000
    34 HAZ1        48.5697    31.2096    21.0251 H            1 23D1591   0.0000
    35 HAZ2        49.6609    32.3578    20.6282 H            1 23D1591   0.0000
    36 HBA1        50.1837    30.3129    19.5094 H            1 23D1591   0.0000
    37 HBA2        48.7045    30.3184    18.8177 H            1 23D1591   0.0000
    38 HBA3        49.7957    31.4666    18.4208 H            1 23D1591   0.0000
    39 H12         42.6459    31.2379    21.0326 H            1 23D1591   0.0000
    40 HAG         42.9039    30.9677    23.3977 H            1 23D1591   0.0000
    41 HAF1        45.2011    31.1166    23.7152 H            1 23D1591   0.0000
    42 HAF2        45.4495    29.8036    22.7766 H            1 23D1591   0.0000
    43 HAE1        44.9663    29.8244    25.4709 H            1 23D1591   0.0000
    44 HAE2        45.2346    28.5128    24.5359 H            1 23D1591   0.0000
    45 HAD1        42.6601    29.6646    25.1217 H            1 23D1591   0.0000
    46 HAD2        43.1950    28.2082    25.6313 H            1 23D1591   0.0000
    47 HAC1        41.6755    27.9961    23.7708 H            1 23D1591   0.0000
    48 HAC2        43.1441    27.3727    23.4224 H            1 23D1591   0.0000
    49 HAA         43.2451    28.6909    21.6708 H            1 23D1591   0.0000
    50 HAB1        41.4230    29.6474    20.9478 H            1 23D1591   0.0000
    51 HAB2        40.7711    28.7691    22.1603 H            1 23D1591   0.0000
    52 HAB3        41.1071    30.3510    22.3872 H            1 23D1591   0.0000
@<TRIPOS>BOND
     1    1    2      ar
     2    1    7      ar
     3    2    3       1
     4    2    4      ar
     5    4    5      ar
     6    5    6      ar
     7    6    7      ar
     8    7    8       1
     9    8    9       1
    10    9   10      ar
    11    9   11      ar
    12   10   19      ar
    13   11   12       1
    14   11   17      ar
    15   12   13       2
    16   13   14       1
    17   14   15       1
    18   14   17       1
    19   15   16       1
    20   17   18      ar
    21   18   19      ar
    22   19   20       1
    23   20   21       1
    24   21   22       1
    25   21   26       1
    26   22   23       1
    27   23   24       1
    28   24   25       1
    29   25   26       1
    30   26   27       1
    31    1   28       1
    32    4   29       1
    33    5   30       1
    34    6   31       1
    35    8   32       1
    36   13   33       1
    37   15   34       1
    38   15   35       1
    39   16   36       1
    40   16   37       1
    41   16   38       1
    42   20   39       1
    43   21   40       1
    44   22   41       1
    45   22   42       1
    46   23   43       1
    47   23   44       1
    48   24   45       1
    49   24   46       1
    50   25   47       1
    51   25   48       1
    52   26   49       1
    53   27   50       1
    54   27   51       1
    55   27   52       1
@<TRIPOS>SUBSTRUCTURE
     1 23D1591     1 GROUP             4 A     23D     0 **** 23D A1591
