@<TRIPOS>MOLECULE
3qpb_URA_15_ligand
   12    12     1     0     0
SMALL
NO_CHARGES


@<TRIPOS>ATOM
     1 N1          17.1330    26.9920   114.9880 N.pl3        1 URA1255   0.0000
     2 C2          17.2400    25.6960   115.5060 C.2          1 URA1255   0.0000
     3 O2          16.7240    24.7480   114.9160 O.2          1 URA1255   0.0000
     4 N3          17.9270    25.4840   116.7070 N.pl3        1 URA1255   0.0000
     5 C4          18.5030    26.5650   117.3860 C.2          1 URA1255   0.0000
     6 O4          19.1010    26.3760   118.4440 O.2          1 URA1255   0.0000
     7 C5          18.3950    27.8510   116.8680 C.2          1 URA1255   0.0000
     8 C6          17.7140    28.0660   115.6750 C.2          1 URA1255   0.0000
     9 H1          16.6436    27.1508   114.1305 H            1 URA1255   0.0000
    10 H2          18.0066    24.5598   117.0805 H            1 URA1255   0.0000
    11 H3          18.8074    28.6216   117.3538 H            1 URA1255   0.0000
    12 H4          17.6385    28.9921   115.3054 H            1 URA1255   0.0000
@<TRIPOS>BOND
     1    1    2       1
     2    1    8       1
     3    2    3       2
     4    2    4       1
     5    4    5       1
     6    5    6       2
     7    5    7       1
     8    7    8       2
     9    1    9       1
    10    4   10       1
    11    7   11       1
    12    8   12       1
@<TRIPOS>SUBSTRUCTURE
     1 URA1255     1 GROUP             4 O     URA     0 **** URA O1255
