@<TRIPOS>MOLECULE
3deu_SAL_4_ligand
   15    15     1     0     0
SMALL
NO_CHARGES


@<TRIPOS>ATOM
     1 C1'          6.0790    35.8490    24.5780 C.2          1 SAL302   0.0000
     2 O1'          7.2520    36.2510    24.7260 O.co2        1 SAL302   0.0000
     3 O2'          5.1400    36.4300    25.1800 O.co2        1 SAL302  -1.0000
     4 C1           5.9280    34.6930    23.6220 C.ar         1 SAL302   0.0000
     5 C2           7.1840    34.1790    23.0260 C.ar         1 SAL302   0.0000
     6 C3           7.1220    33.1240    22.1220 C.ar         1 SAL302   0.0000
     7 C4           5.9020    32.5660    21.7640 C.ar         1 SAL302   0.0000
     8 C5           4.7200    33.0420    22.3190 C.ar         1 SAL302   0.0000
     9 C6           4.7370    34.0990    23.2330 C.ar         1 SAL302   0.0000
    10 O2           8.3690    34.7750    23.3920 O.3          1 SAL302   0.0000
    11 H1           7.9659    32.7630    21.7252 H            1 SAL302   0.0000
    12 H2           5.8736    31.8166    21.1024 H            1 SAL302   0.0000
    13 H3           3.8488    32.6240    22.0617 H            1 SAL302   0.0000
    14 H4           3.8746    34.4330    23.6134 H            1 SAL302   0.0000
    15 H5           8.3668    35.5335    24.0437 H            1 SAL302   0.0000
@<TRIPOS>BOND
     1    1    2      ar
     2    1    3      ar
     3    1    4       1
     4    4    5      ar
     5    4    9      ar
     6    5    6      ar
     7    5   10       1
     8    6    7      ar
     9    7    8      ar
    10    8    9      ar
    11   10   15       1
    12    6   11       1
    13    7   12       1
    14    8   13       1
    15    9   14       1
@<TRIPOS>SUBSTRUCTURE
     1 SAL302      1 GROUP             4 B     SAL     0 **** SAL B 302
