@<TRIPOS>MOLECULE
2yaa_ATP_1_ligand
   43    45     1     0     0
SMALL
NO_CHARGES


@<TRIPOS>ATOM
     1 PG         -25.1430    -4.0920   -34.3650 P.3          1 ATP1302   0.0000
     2 O1G        -25.1500    -2.7230   -33.7190 O.co2        1 ATP1302   0.0000
     3 O2G        -26.0400    -4.2290   -35.5760 O.co2        1 ATP1302  -1.0000
     4 O3G        -25.2080    -5.2400   -33.3800 O.co2        1 ATP1302  -1.0000
     5 PB         -22.7850    -5.4740   -34.5950 P.3          1 ATP1302   0.0000
     6 O1B        -21.4500    -5.3440   -35.2880 O.co2        1 ATP1302   0.0000
     7 O2B        -23.6170    -6.7220   -34.7750 O.co2        1 ATP1302  -1.0000
     8 O3B        -23.6630    -4.1900   -34.9790 O.3          1 ATP1302   0.0000
     9 PA         -22.3880    -6.2600   -31.8860 P.3          1 ATP1302   0.0000
    10 O1A        -22.5070    -7.6430   -32.4780 O.co2        1 ATP1302   0.0000
    11 O2A        -21.1690    -5.8600   -31.0920 O.co2        1 ATP1302  -1.0000
    12 O3A        -22.6230    -5.1470   -33.0240 O.3          1 ATP1302   0.0000
    13 O5'        -23.6920    -6.0850   -30.9670 O.3          1 ATP1302   0.0000
    14 C5'        -23.7090    -6.6350   -29.6570 C.3          1 ATP1302   0.0000
    15 C4'        -24.6240    -7.8490   -29.5780 C.3          1 ATP1302   0.0000
    16 O4'        -23.8390    -9.0360   -29.7400 O.3          1 ATP1302   0.0000
    17 C3'        -25.2670    -7.9140   -28.2050 C.3          1 ATP1302   0.0000
    18 O3'        -26.6950    -7.8900   -28.3140 O.3          1 ATP1302   0.0000
    19 C2'        -24.7830    -9.2080   -27.5770 C.3          1 ATP1302   0.0000
    20 O2'        -25.8750   -10.1210   -27.4530 O.3          1 ATP1302   0.0000
    21 C1'        -23.7240    -9.7650   -28.5140 C.3          1 ATP1302   0.0000
    22 N9         -22.3910    -9.4610   -27.9250 N.pl3        1 ATP1302   0.0000
    23 C8         -21.5570    -8.4960   -28.3630 C.2          1 ATP1302   0.0000
    24 N7         -20.4200    -8.4440   -27.6300 N.2          1 ATP1302   0.0000
    25 C5         -20.5120    -9.4040   -26.6900 C.ar         1 ATP1302   0.0000
    26 C6         -19.6540    -9.9000   -25.5890 C.ar         1 ATP1302   0.0000
    27 N6         -18.4480    -9.3370   -25.3470 N.pl3        1 ATP1302   0.0000
    28 N1         -20.1060   -10.9250   -24.8390 N.ar         1 ATP1302   0.0000
    29 C2         -21.3020   -11.4880   -25.0740 C.ar         1 ATP1302   0.0000
    30 N3         -22.1320   -11.0900   -26.0560 N.ar         1 ATP1302   0.0000
    31 C4         -21.8070   -10.0720   -26.8860 C.ar         1 ATP1302   0.0000
    32 H5'1       -24.0344    -5.9397   -29.0161 H            1 ATP1302   0.0000
    33 H5'2       -22.7806    -6.9102   -29.4073 H            1 ATP1302   0.0000
    34 H4'        -25.3270    -7.7994   -30.2875 H            1 ATP1302   0.0000
    35 H3'        -24.9597    -7.1383   -27.6538 H            1 ATP1302   0.0000
    36 H5         -27.0532    -7.0937   -27.8265 H            1 ATP1302   0.0000
    37 H2'        -24.3844    -9.0254   -26.6782 H            1 ATP1302   0.0000
    38 H7         -26.7071    -9.6958   -27.8092 H            1 ATP1302   0.0000
    39 H1'        -23.8443   -10.7470   -28.6596 H            1 ATP1302   0.0000
    40 H9         -21.7544    -7.8922   -29.1353 H            1 ATP1302   0.0000
    41 H10        -17.8768    -9.6797   -24.6011 H            1 ATP1302   0.0000
    42 H11        -18.1276    -8.5781   -25.9140 H            1 ATP1302   0.0000
    43 H12        -21.5919   -12.2443   -24.4875 H            1 ATP1302   0.0000
@<TRIPOS>BOND
     1    1    2      ar
     2    1    3      ar
     3    1    4      ar
     4    1    8       1
     5    5    6      ar
     6    5    7      ar
     7    5    8       1
     8    5   12       1
     9    9   10      ar
    10    9   11      ar
    11    9   12       1
    12    9   13       1
    13   13   14       1
    14   14   15       1
    15   15   16       1
    16   15   17       1
    17   16   21       1
    18   17   18       1
    19   17   19       1
    20   19   20       1
    21   19   21       1
    22   21   22       1
    23   22   23       1
    24   22   31       1
    25   23   24       2
    26   24   25       1
    27   25   26      ar
    28   25   31      ar
    29   26   27       1
    30   26   28      ar
    31   28   29      ar
    32   29   30      ar
    33   30   31      ar
    34   29   43       1
    35   27   42       1
    36   27   41       1
    37   23   40       1
    38   14   32       1
    39   14   33       1
    40   15   34       1
    41   17   35       1
    42   18   36       1
    43   19   37       1
    44   20   38       1
    45   21   39       1
@<TRIPOS>SUBSTRUCTURE
     1 ATP1302     1 GROUP             4 A     ATP     0 **** ATP A1302
