@<TRIPOS>MOLECULE
3phe_C9A_1_ligand
   71    75     1     0     0
SMALL
NO_CHARGES


@<TRIPOS>ATOM
     1 C1          36.0200    68.9140    19.1500 C.3          1 C9A999   0.0000
     2 N2          35.2550    70.0370    19.7010 N.4          1 C9A999   1.0000
     3 C3          35.6430    71.3160    19.0310 C.3          1 C9A999   0.0000
     4 C4          34.9380    72.5400    19.6560 C.3          1 C9A999   0.0000
     5 N5          35.1970    72.5870    21.1280 N.pl3        1 C9A999   0.0000
     6 C6          34.7740    71.3370    21.8240 C.3          1 C9A999   0.0000
     7 C7          35.4820    70.1210    21.1820 C.3          1 C9A999   0.0000
     8 C8          34.6950    73.8340    21.6890 C.ar         1 C9A999   0.0000
     9 C9          35.4630    75.0480    21.7260 C.ar         1 C9A999   0.0000
    10 F10         36.7090    75.0900    21.2380 F            1 C9A999   0.0000
    11 C11         34.9580    76.2470    22.2670 C.ar         1 C9A999   0.0000
    12 C12         33.6460    76.2820    22.8060 C.ar         1 C9A999   0.0000
    13 C13         33.1260    77.5660    23.3750 C.2          1 C9A999   0.0000
    14 O14         33.8530    78.5500    23.3930 O.2          1 C9A999   0.0000
    15 C15         31.7390    77.6260    23.9460 C.2          1 C9A999   0.0000
    16 C16         31.0320    76.4680    23.9130 C.2          1 C9A999   0.0000
    17 N17         31.4630    75.2220    23.4000 N.pl3        1 C9A999   0.0000
    18 C18         30.5840    74.0170    23.5310 C.3          1 C9A999   0.0000
    19 C19         30.8980    73.1650    24.7810 C.ar         1 C9A999   0.0000
    20 C20         31.7570    73.6430    25.8400 C.ar         1 C9A999   0.0000
    21 C21         32.0330    72.8500    26.9760 C.ar         1 C9A999   0.0000
    22 C22         31.4580    71.5600    27.0820 C.ar         1 C9A999   0.0000
    23 C23         30.6090    71.0570    26.0600 C.ar         1 C9A999   0.0000
    24 C24         30.3330    71.8570    24.9170 C.ar         1 C9A999   0.0000
    25 S25         31.8080    70.5860    28.5030 S.o2         1 C9A999   0.0000
    26 C26         33.2230    69.6330    28.0210 C.3          1 C9A999   0.0000
    27 O27         30.7130    69.6590    28.6970 O.2          1 C9A999   0.0000
    28 O28         32.2000    71.4900    29.5640 O.2          1 C9A999   0.0000
    29 C29         32.8040    75.1160    22.8190 C.ar         1 C9A999   0.0000
    30 C30         33.3660    73.9130    22.2500 C.ar         1 C9A999   0.0000
    31 C31         31.1800    78.8900    24.5140 C.2          1 C9A999   0.0000
    32 O32         31.7850    79.9650    24.5020 O.2          1 C9A999   0.0000
    33 O33         29.9140    78.6850    25.0430 O.3          1 C9A999   0.0000
    34 C34         29.3400    79.7470    25.8460 C.3          1 C9A999   0.0000
    35 C35         29.7340    79.5740    27.3000 C.ar         1 C9A999   0.0000
    36 C36         29.3290    78.4180    28.0350 C.ar         1 C9A999   0.0000
    37 C37         29.7010    78.2650    29.4010 C.ar         1 C9A999   0.0000
    38 C38         30.4820    79.2670    30.0360 C.ar         1 C9A999   0.0000
    39 CL39        30.9230    79.0850    31.6730 Cl           1 C9A999   0.0000
    40 C40         30.8940    80.4190    29.3210 C.ar         1 C9A999   0.0000
    41 C41         30.5210    80.5700    27.9570 C.ar         1 C9A999   0.0000
    42 H1          35.7479    68.0682    19.6090 H            1 C9A999   0.0000
    43 H2          35.8372    68.8351    18.1700 H            1 C9A999   0.0000
    44 H3          36.9966    69.0728    19.2952 H            1 C9A999   0.0000
    45 H4          35.3951    71.2608    18.0638 H            1 C9A999   0.0000
    46 H5          36.6321    71.4364    19.1153 H            1 C9A999   0.0000
    47 H6          33.9533    72.4720    19.4956 H            1 C9A999   0.0000
    48 H7          35.2879    73.3753    19.2319 H            1 C9A999   0.0000
    49 H8          33.7835    71.2281    21.7399 H            1 C9A999   0.0000
    50 H9          35.0221    71.3942    22.7910 H            1 C9A999   0.0000
    51 H10         36.4646    70.1961    21.3517 H            1 C9A999   0.0000
    52 H11         35.1332    69.2859    21.6074 H            1 C9A999   0.0000
    53 H12         35.5233    77.0719    22.2711 H            1 C9A999   0.0000
    54 H13         30.1071    76.4988    24.2920 H            1 C9A999   0.0000
    55 H14         30.7050    73.4460    22.7190 H            1 C9A999   0.0000
    56 H15         29.6332    74.3220    23.5853 H            1 C9A999   0.0000
    57 H16         32.1643    74.5534    25.7673 H            1 C9A999   0.0000
    58 H17         32.6297    73.1967    27.6997 H            1 C9A999   0.0000
    59 H18         30.2075    70.1450    26.1439 H            1 C9A999   0.0000
    60 H19         29.7359    71.5007    24.1983 H            1 C9A999   0.0000
    61 H20         33.4987    69.0398    28.7773 H            1 C9A999   0.0000
    62 H21         32.9924    69.0731    27.2252 H            1 C9A999   0.0000
    63 H22         33.9760    70.2486    27.7886 H            1 C9A999   0.0000
    64 H23         32.8024    73.0870    22.2441 H            1 C9A999   0.0000
    65 H24         28.3435    79.7186    25.7680 H            1 C9A999   0.0000
    66 H25         29.6752    80.6293    25.5155 H            1 C9A999   0.0000
    67 H26         28.7807    77.7116    27.5874 H            1 C9A999   0.0000
    68 H27         29.4133    77.4547    29.9115 H            1 C9A999   0.0000
    69 H28         31.4437    81.1216    29.7729 H            1 C9A999   0.0000
    70 H29         30.8126    81.3822    27.4518 H            1 C9A999   0.0000
    71 H30         34.2826    69.8724    19.5359 H            1 C9A999   0.0000
@<TRIPOS>BOND
     1    1    2       1
     2    2    3       1
     3    2    7       1
     4    3    4       1
     5    4    5       1
     6    5    6       1
     7    5    8       1
     8    6    7       1
     9    8    9      ar
    10    8   30      ar
    11    9   10       1
    12    9   11      ar
    13   11   12      ar
    14   12   13       1
    15   12   29      ar
    16   13   14       2
    17   13   15       1
    18   15   16       2
    19   15   31       1
    20   16   17       1
    21   17   18       1
    22   17   29       1
    23   18   19       1
    24   19   20      ar
    25   19   24      ar
    26   20   21      ar
    27   21   22      ar
    28   22   23      ar
    29   22   25       1
    30   23   24      ar
    31   25   26       1
    32   25   27       2
    33   25   28       2
    34   29   30      ar
    35   31   32       2
    36   31   33       1
    37   33   34       1
    38   34   35       1
    39   35   36      ar
    40   35   41      ar
    41   36   37      ar
    42   37   38      ar
    43   38   39       1
    44   38   40      ar
    45   40   41      ar
    46    1   42       1
    47    1   43       1
    48    1   44       1
    49    3   45       1
    50    3   46       1
    51    4   47       1
    52    4   48       1
    53    6   49       1
    54    6   50       1
    55    7   51       1
    56    7   52       1
    57   11   53       1
    58   16   54       1
    59   18   55       1
    60   18   56       1
    61   20   57       1
    62   21   58       1
    63   23   59       1
    64   24   60       1
    65   26   61       1
    66   26   62       1
    67   26   63       1
    68   30   64       1
    69   34   65       1
    70   34   66       1
    71   36   67       1
    72   37   68       1
    73   40   69       1
    74   41   70       1
    75    2   71       1
@<TRIPOS>SUBSTRUCTURE
     1 C9A999      1 GROUP             4 A     C9A     0 **** C9A A 999
