@<TRIPOS>MOLECULE
2qt0_NNR_1_ligand
   33    34     1     0     0
SMALL
NO_CHARGES


@<TRIPOS>ATOM
     1 O2R        -19.3880    -2.3470   -12.0210 O.3          1 NNR1103   0.0000
     2 C2R        -19.2160    -1.4430   -10.8660 C.3          1 NNR1103   0.0000
     3 C3R        -20.3710    -1.5120    -9.8560 C.3          1 NNR1103   0.0000
     4 O3R        -21.5020    -2.1800   -10.4080 O.3          1 NNR1103   0.0000
     5 C4R        -20.7240    -0.0220    -9.5700 C.3          1 NNR1103   0.0000
     6 C5R        -20.9490     0.2550    -8.0390 C.3          1 NNR1103   0.0000
     7 O5R        -20.3460     1.4850    -7.7020 O.3          1 NNR1103   0.0000
     8 O4R        -19.5990     0.7590   -10.0730 O.3          1 NNR1103   0.0000
     9 C1R        -19.2540     0.0310   -11.2950 C.3          1 NNR1103   0.0000
    10 N1         -17.8810     0.4070   -11.7610 N.ar         1 NNR1103   1.0000
    11 C2         -17.0730     1.2500   -10.9760 C.ar         1 NNR1103   0.0000
    12 C6         -17.3710    -0.1150   -12.9730 C.ar         1 NNR1103   0.0000
    13 C5         -16.0900     0.2450   -13.3860 C.ar         1 NNR1103   0.0000
    14 C4         -15.3150     1.0910   -12.6090 C.ar         1 NNR1103   0.0000
    15 C3         -15.8010     1.5970   -11.4070 C.ar         1 NNR1103   0.0000
    16 C7         -14.9250     2.5270   -10.5500 C.2          1 NNR1103   0.0000
    17 O7         -13.7170     2.3840   -10.5390 O.2          1 NNR1103   0.0000
    18 N7         -15.5640     3.4380    -9.8280 N.am         1 NNR1103   0.0000
    19 H2R        -19.4476    -3.2918   -11.6988 H            1 NNR1103   0.0000
    20 H2         -18.3503    -1.6406   -10.4060 H            1 NNR1103   0.0000
    21 H3R        -20.0731    -1.9668    -9.0167 H            1 NNR1103   0.0000
    22 H4         -21.4370    -3.1593   -10.2165 H            1 NNR1103   0.0000
    23 H4R        -21.5505     0.2250   -10.0758 H            1 NNR1103   0.0000
    24 H5R1       -20.5357    -0.4797    -7.5010 H            1 NNR1103   0.0000
    25 H5R2       -21.9293     0.2982    -7.8465 H            1 NNR1103   0.0000
    26 H5R        -21.0081     2.2247    -7.8219 H            1 NNR1103   0.0000
    27 H1R        -19.9345     0.1827   -12.0119 H            1 NNR1103   0.0000
    28 H10        -17.4168     1.6001   -10.1047 H            1 NNR1103   0.0000
    29 H11        -17.9245    -0.7362   -13.5278 H            1 NNR1103   0.0000
    30 H12        -15.7278    -0.1092   -14.2482 H            1 NNR1103   0.0000
    31 H13        -14.3964     1.3407   -12.9153 H            1 NNR1103   0.0000
    32 H14        -15.0477     4.0709    -9.2510 H            1 NNR1103   0.0000
    33 H15        -16.5620     3.4919    -9.8607 H            1 NNR1103   0.0000
@<TRIPOS>BOND
     1    1    2       1
     2    2    3       1
     3    2    9       1
     4    3    4       1
     5    3    5       1
     6    5    6       1
     7    5    8       1
     8    6    7       1
     9    8    9       1
    10    9   10       1
    11   10   11      ar
    12   10   12      ar
    13   11   15      ar
    14   12   13      ar
    15   13   14      ar
    16   14   15      ar
    17   15   16       1
    18   16   17       2
    19   16   18      am
    20    1   19       1
    21    2   20       1
    22    3   21       1
    23    4   22       1
    24    5   23       1
    25    6   24       1
    26    6   25       1
    27    7   26       1
    28    9   27       1
    29   11   28       1
    30   12   29       1
    31   13   30       1
    32   14   31       1
    33   18   32       1
    34   18   33       1
@<TRIPOS>SUBSTRUCTURE
     1 NNR1103     1 GROUP             4 A     NNR     0 **** NNR A1103
