@<TRIPOS>MOLECULE
2i62_SAH_1_ligand
   46    48     1     0     0
SMALL
NO_CHARGES


@<TRIPOS>ATOM
     1 N           18.0420    14.8910     7.1700 N.4          1 SAH4001   1.0000
     2 CA          19.4000    15.4190     7.5350 C.3          1 SAH4001   0.0000
     3 CB          19.4200    16.3320     8.7980 C.3          1 SAH4001   0.0000
     4 CG          19.2950    15.7120    10.2020 C.3          1 SAH4001   0.0000
     5 SD          19.8920    16.7880    11.5750 S.3          1 SAH4001   0.0000
     6 C           20.4490    14.3020     7.5080 C.2          1 SAH4001   0.0000
     7 O           20.1880    13.1580     7.1100 O.co2        1 SAH4001   0.0000
     8 OXT         21.6120    14.5200     7.8390 O.co2        1 SAH4001  -1.0000
     9 C5'         18.2960    17.0340    12.4090 C.3          1 SAH4001   0.0000
    10 C4'         17.3320    17.9220    11.6200 C.3          1 SAH4001   0.0000
    11 O4'         16.0510    17.8720    12.2150 O.3          1 SAH4001   0.0000
    12 C3'         17.7400    19.3910    11.5660 C.3          1 SAH4001   0.0000
    13 O3'         17.8970    19.7960    10.2200 O.3          1 SAH4001   0.0000
    14 C2'         16.5770    20.1040    12.2340 C.3          1 SAH4001   0.0000
    15 O2'         16.2560    21.3670    11.7030 O.3          1 SAH4001   0.0000
    16 C1'         15.4320    19.1340    12.0380 C.3          1 SAH4001   0.0000
    17 N9          14.3550    19.3310    13.0390 N.pl3        1 SAH4001   0.0000
    18 C8          14.4950    19.5460    14.4020 C.2          1 SAH4001   0.0000
    19 N7          13.2680    19.6680    14.9580 N.2          1 SAH4001   0.0000
    20 C5          12.3450    19.5300    13.9710 C.ar         1 SAH4001   0.0000
    21 C6          10.9560    19.5930    13.9750 C.ar         1 SAH4001   0.0000
    22 N6          10.2940    19.7930    15.1200 N.pl3        1 SAH4001   0.0000
    23 N1          10.2610    19.4350    12.7940 N.ar         1 SAH4001   0.0000
    24 C2          10.9320    19.2290    11.5890 C.ar         1 SAH4001   0.0000
    25 N3          12.3110    19.1790    11.5900 N.ar         1 SAH4001   0.0000
    26 C4          13.0130    19.3350    12.7550 C.ar         1 SAH4001   0.0000
    27 H1          17.9915    14.7569     6.1803 H            1 SAH4001   0.0000
    28 H2          17.8883    14.0181     7.6330 H            1 SAH4001   0.0000
    29 HA          19.6508    16.0234     6.7788 H            1 SAH4001   0.0000
    30 HB1         18.6622    16.9769     8.6993 H            1 SAH4001   0.0000
    31 HB2         20.2866    16.8306     8.7794 H            1 SAH4001   0.0000
    32 HG1         19.8260    14.8647    10.2168 H            1 SAH4001   0.0000
    33 HG2         18.3307    15.5040    10.3660 H            1 SAH4001   0.0000
    34 H5'1        18.4646    17.4599    13.2979 H            1 SAH4001   0.0000
    35 H5'2        17.8670    16.1407    12.5434 H            1 SAH4001   0.0000
    36 H4'         17.2657    17.5727    10.6854 H            1 SAH4001   0.0000
    37 H3'         18.5853    19.5402    12.0790 H            1 SAH4001   0.0000
    38 H12         17.0323    19.6751     9.7325 H            1 SAH4001   0.0000
    39 H2'         16.7658    20.1966    13.2116 H            1 SAH4001   0.0000
    40 H14         16.4851    21.3875    10.7298 H            1 SAH4001   0.0000
    41 H1'         15.0640    19.2136    11.1116 H            1 SAH4001   0.0000
    42 H16         15.3635    19.6018    14.8945 H            1 SAH4001   0.0000
    43 H17          9.2950    19.8377    15.1187 H            1 SAH4001   0.0000
    44 H18         10.7981    19.8978    15.9773 H            1 SAH4001   0.0000
    45 H19         10.4211    19.1191    10.7364 H            1 SAH4001   0.0000
    46 H20         17.3422    15.5466     7.4537 H            1 SAH4001   0.0000
@<TRIPOS>BOND
     1    1    2       1
     2    2    3       1
     3    2    6       1
     4    3    4       1
     5    4    5       1
     6    5    9       1
     7    6    7      ar
     8    6    8      ar
     9    9   10       1
    10   10   11       1
    11   10   12       1
    12   11   16       1
    13   12   13       1
    14   12   14       1
    15   14   15       1
    16   14   16       1
    17   16   17       1
    18   17   18       1
    19   17   26       1
    20   18   19       2
    21   19   20       1
    22   20   21      ar
    23   20   26      ar
    24   21   22       1
    25   21   23      ar
    26   23   24      ar
    27   24   25      ar
    28   25   26      ar
    29    1   27       1
    30    1   28       1
    31    2   29       1
    32    3   30       1
    33    3   31       1
    34    4   32       1
    35    4   33       1
    36    1   46       1
    37    9   34       1
    38    9   35       1
    39   10   36       1
    40   12   37       1
    41   13   38       1
    42   14   39       1
    43   15   40       1
    44   16   41       1
    45   18   42       1
    46   22   43       1
    47   22   44       1
    48   24   45       1
@<TRIPOS>SUBSTRUCTURE
     1 SAH4001     1 GROUP             4 A     SAH     0 **** SAH A4001
