@<TRIPOS>MOLECULE
2fgh_ATP_2_ligand
   43    45     1     0     0
SMALL
NO_CHARGES


@<TRIPOS>ATOM
     1 PG          45.5940    90.4920    54.1770 P.3          1 ATP9380   0.0000
     2 O1G         45.4160    91.9820    54.2440 O.co2        1 ATP9380   0.0000
     3 O2G         44.4950    89.8510    53.3060 O.co2        1 ATP9380  -1.0000
     4 O3G         47.0010    90.0420    53.6910 O.co2        1 ATP9380  -1.0000
     5 PB          46.2550    88.8500    56.3540 P.3          1 ATP9380   0.0000
     6 O1B         45.6010    88.2720    57.5650 O.co2        1 ATP9380   0.0000
     7 O2B         47.7430    89.1910    56.5180 O.co2        1 ATP9380  -1.0000
     8 O3B         45.3560    90.0390    55.7140 O.3          1 ATP9380   0.0000
     9 PA          47.2460    86.5390    55.6060 P.3          1 ATP9380   0.0000
    10 O1A         48.4000    86.4700    54.6490 O.co2        1 ATP9380   0.0000
    11 O2A         47.5610    86.4450    57.1040 O.co2        1 ATP9380  -1.0000
    12 O3A         46.2200    87.7250    55.2400 O.3          1 ATP9380   0.0000
    13 O5'         46.1930    85.3920    55.2040 O.3          1 ATP9380   0.0000
    14 C5'         45.8760    85.4080    53.8020 C.3          1 ATP9380   0.0000
    15 C4'         44.3910    85.4100    53.5070 C.3          1 ATP9380   0.0000
    16 O4'         44.0770    84.1810    52.8640 O.3          1 ATP9380   0.0000
    17 C3'         43.4940    85.4420    54.7190 C.3          1 ATP9380   0.0000
    18 O3'         42.2530    86.0040    54.3240 O.3          1 ATP9380   0.0000
    19 C2'         43.3820    84.0050    55.1670 C.3          1 ATP9380   0.0000
    20 O2'         42.1050    83.6660    55.6640 O.3          1 ATP9380   0.0000
    21 C1'         43.6740    83.2420    53.8840 C.3          1 ATP9380   0.0000
    22 N9          44.6300    82.2030    54.2740 N.pl3        1 ATP9380   0.0000
    23 C8          45.6480    82.1960    55.2190 C.2          1 ATP9380   0.0000
    24 N7          46.2180    80.9510    55.2440 N.2          1 ATP9380   0.0000
    25 C5          45.5530    80.1830    54.3440 C.ar         1 ATP9380   0.0000
    26 C6          45.7050    78.8690    53.9720 C.ar         1 ATP9380   0.0000
    27 N6          46.5170    78.1130    54.7030 N.pl3        1 ATP9380   0.0000
    28 N1          44.8660    78.3400    53.0110 N.ar         1 ATP9380   0.0000
    29 C2          43.8860    79.1390    52.4400 C.ar         1 ATP9380   0.0000
    30 N3          43.7290    80.4540    52.8110 N.ar         1 ATP9380   0.0000
    31 C4          44.5530    80.9530    53.7470 C.ar         1 ATP9380   0.0000
    32 H5'1        46.2796    84.5968    53.3790 H            1 ATP9380   0.0000
    33 H5'2        46.2781    86.2296    53.3980 H            1 ATP9380   0.0000
    34 H4'         44.1681    86.1742    52.9018 H            1 ATP9380   0.0000
    35 H3'         43.9092    85.9964    55.4403 H            1 ATP9380   0.0000
    36 H5          41.6367    86.0375    55.1108 H            1 ATP9380   0.0000
    37 H2'         44.0816    83.8038    55.8527 H            1 ATP9380   0.0000
    38 H7          42.0996    82.7054    55.9417 H            1 ATP9380   0.0000
    39 H1'         42.8304    82.7962    53.5848 H            1 ATP9380   0.0000
    40 H9          45.9200    82.9724    55.7876 H            1 ATP9380   0.0000
    41 H10         46.6543    77.1515    54.4649 H            1 ATP9380   0.0000
    42 H11         46.9908    78.5055    55.4913 H            1 ATP9380   0.0000
    43 H12         43.2814    78.7508    51.7444 H            1 ATP9380   0.0000
@<TRIPOS>BOND
     1    1    2      ar
     2    1    3      ar
     3    1    4      ar
     4    1    8       1
     5    5    6      ar
     6    5    7      ar
     7    5    8       1
     8    5   12       1
     9    9   10      ar
    10    9   11      ar
    11    9   12       1
    12    9   13       1
    13   13   14       1
    14   14   15       1
    15   15   16       1
    16   15   17       1
    17   16   21       1
    18   17   18       1
    19   17   19       1
    20   19   20       1
    21   19   21       1
    22   21   22       1
    23   22   23       1
    24   22   31       1
    25   23   24       2
    26   24   25       1
    27   25   26      ar
    28   25   31      ar
    29   26   27       1
    30   26   28      ar
    31   28   29      ar
    32   29   30      ar
    33   30   31      ar
    34   29   43       1
    35   27   42       1
    36   27   41       1
    37   23   40       1
    38   14   32       1
    39   14   33       1
    40   15   34       1
    41   17   35       1
    42   18   36       1
    43   19   37       1
    44   20   38       1
    45   21   39       1
@<TRIPOS>SUBSTRUCTURE
     1 ATP9380     1 GROUP             4 B     ATP     0 **** ATP B9380
