@<TRIPOS>MOLECULE
1zay_HPA_1_ligand
   15    16     1     0     0
SMALL
NO_CHARGES


@<TRIPOS>ATOM
     1 N1          57.1990     2.7240   -10.9460 N.pl3        1 HPA599   0.0000
     2 C2          58.0790     2.8430    -9.8930 C.2          1 HPA599   0.0000
     3 N3          58.7280     3.9580    -9.5840 N.2          1 HPA599   0.0000
     4 C4          58.4310     4.9650   -10.4390 C.2          1 HPA599   0.0000
     5 C5          57.5660     4.9470   -11.5120 C.2          1 HPA599   0.0000
     6 C6          56.8720     3.7530   -11.8260 C.2          1 HPA599   0.0000
     7 O6          56.0690     3.5510   -12.7460 O.2          1 HPA599   0.0000
     8 N7          57.5270     6.1890   -12.1300 N.2          1 HPA599   1.0000
     9 C8          58.3540     6.9210   -11.4330 C.2          1 HPA599   0.0000
    10 N9          58.9350     6.2470   -10.3860 N.pl3        1 HPA599   0.0000
    11 H1          56.7637     1.8351   -11.0889 H            1 HPA599   0.0000
    12 H2          58.2391     2.0362    -9.3243 H            1 HPA599   0.0000
    13 H3          58.5460     7.8800   -11.6413 H            1 HPA599   0.0000
    14 H4          59.5885     6.6113    -9.7225 H            1 HPA599   0.0000
    15 H5          56.9884     6.4614   -12.9273 H            1 HPA599   0.0000
@<TRIPOS>BOND
     1    1    2       1
     2    1    6       1
     3    2    3       2
     4    3    4       1
     5    4    5       2
     6    4   10       1
     7    5    6       1
     8    5    8       1
     9    6    7       2
    10    8    9       2
    11    9   10       1
    12    1   11       1
    13    2   12       1
    14    9   13       1
    15   10   14       1
    16    8   15       1
@<TRIPOS>SUBSTRUCTURE
     1 HPA599      1 GROUP             4 A     HPA     0 **** HPA A 599
