@<TRIPOS>MOLECULE
4fkz_UD1_2_ligand
   64    66     1     0     0
SMALL
NO_CHARGES


@<TRIPOS>ATOM
     1 C1'         25.2660    13.2020    18.7310 C.3          1 UD1401   0.0000
     2 C2'         24.7760    13.6740    17.3590 C.3          1 UD1401   0.0000
     3 C3'         24.1830    12.5130    16.5760 C.3          1 UD1401   0.0000
     4 C4'         25.1540    11.3310    16.5180 C.3          1 UD1401   0.0000
     5 C5'         25.6190    10.9390    17.9320 C.3          1 UD1401   0.0000
     6 C6'         26.7210     9.8840    17.8330 C.3          1 UD1401   0.0000
     7 C7'         23.9110    15.9440    17.1360 C.2          1 UD1401   0.0000
     8 C8'         22.6750    16.7940    17.2000 C.3          1 UD1401   0.0000
     9 N2'         23.7360    14.6810    17.5340 N.am         1 UD1401   0.0000
    10 O1'         24.1240    12.7940    19.4640 O.3          1 UD1401   0.0000
    11 O3'         23.8920    12.9400    15.2230 O.3          1 UD1401   0.0000
    12 O4'         24.5000    10.2090    15.9280 O.3          1 UD1401   0.0000
    13 O5'         26.1690    12.0910    18.5560 O.3          1 UD1401   0.0000
    14 O6'         26.7420     9.0670    19.0120 O.3          1 UD1401   0.0000
    15 O7'         24.9750    16.4070    16.7570 O.2          1 UD1401   0.0000
    16 N1          28.0990    12.2130    26.4250 N.pl3        1 UD1401   0.0000
    17 C2          29.2200    11.9550    27.2440 C.2          1 UD1401   0.0000
    18 N3          30.4150    11.6610    26.7030 N.pl3        1 UD1401   0.0000
    19 C4          30.5610    11.5670    25.3590 C.2          1 UD1401   0.0000
    20 C5          29.4690    11.7960    24.5290 C.2          1 UD1401   0.0000
    21 C6          28.2310    12.1190    25.0770 C.2          1 UD1401   0.0000
    22 O2          29.1070    12.0580    28.4960 O.2          1 UD1401   0.0000
    23 O4          31.6750    11.2740    24.8700 O.2          1 UD1401   0.0000
    24 C1B         26.8080    12.5660    27.0460 C.3          1 UD1401   0.0000
    25 C2B         26.8500    14.0200    27.5150 C.3          1 UD1401   0.0000
    26 O2'         26.0510    14.1590    28.7040 O.3          1 UD1401   0.0000
    27 C3B         26.1960    14.7510    26.3510 C.3          1 UD1401   0.0000
    28 C4B         25.1240    13.7580    25.9300 C.3          1 UD1401   0.0000
    29 O4B         25.7440    12.4700    26.1070 O.3          1 UD1401   0.0000
    30 O3B         25.6710    16.0320    26.7150 O.3          1 UD1401   0.0000
    31 C5B         24.6340    13.8800    24.4840 C.3          1 UD1401   0.0000
    32 O5B         25.7190    14.1080    23.5950 O.3          1 UD1401   0.0000
    33 PA          25.3940    14.9410    22.2340 P.3          1 UD1401   0.0000
    34 O1A         24.8030    16.2650    22.6460 O.co2        1 UD1401   0.0000
    35 O2A         26.6230    14.8720    21.3640 O.co2        1 UD1401  -1.0000
    36 O3A         24.1920    14.0800    21.6270 O.3          1 UD1401   0.0000
    37 PB          24.1960    12.5750    21.0660 P.3          1 UD1401   0.0000
    38 O1B         25.5020    11.9050    21.3800 O.co2        1 UD1401   0.0000
    39 O2B         22.8950    11.9560    21.4240 O.co2        1 UD1401  -1.0000
    40 H1'         25.7297    13.9499    19.2060 H            1 UD1401   0.0000
    41 H2'         25.5401    14.0672    16.8476 H            1 UD1401   0.0000
    42 H3'         23.3348    12.2193    17.0168 H            1 UD1401   0.0000
    43 H4'         25.9485    11.5809    15.9646 H            1 UD1401   0.0000
    44 H5'         24.8496    10.5886    18.4660 H            1 UD1401   0.0000
    45 H6'1        27.6052    10.3402    17.7330 H            1 UD1401   0.0000
    46 H6'2        26.5521     9.3057    17.0349 H            1 UD1401   0.0000
    47 H8'1        22.8901    17.7191    16.8872 H            1 UD1401   0.0000
    48 H8'2        21.9683    16.3994    16.6127 H            1 UD1401   0.0000
    49 H8'3        22.3434    16.8296    18.1427 H            1 UD1401   0.0000
    50 H11         22.8709    14.4198    17.9623 H            1 UD1401   0.0000
    51 H12         22.9597    13.2992    15.1801 H            1 UD1401   0.0000
    52 H13         25.1728     9.6444    15.4500 H            1 UD1401   0.0000
    53 H6'         26.5805     8.1130    18.7594 H            1 UD1401   0.0000
    54 H15         31.2042    11.5101    27.2983 H            1 UD1401   0.0000
    55 H16         29.5734    11.7285    23.5368 H            1 UD1401   0.0000
    56 H17         27.4439    12.2808    24.4818 H            1 UD1401   0.0000
    57 H1B         26.6296    11.9635    27.8239 H            1 UD1401   0.0000
    58 H2B         27.7885    14.3313    27.6641 H            1 UD1401   0.0000
    59 H20         25.3059    13.4923    28.6848 H            1 UD1401   0.0000
    60 H3B         26.8591    14.8602    25.6105 H            1 UD1401   0.0000
    61 H4B         24.3428    13.8349    26.5496 H            1 UD1401   0.0000
    62 H23         26.4112    16.6104    27.0580 H            1 UD1401   0.0000
    63 H5B1        23.9926    14.6445    24.4197 H            1 UD1401   0.0000
    64 H5B2        24.1704    13.0331    24.2235 H            1 UD1401   0.0000
@<TRIPOS>BOND
     1    1    2       1
     2    1   10       1
     3    1   13       1
     4    2    3       1
     5    2    9       1
     6    3    4       1
     7    3   11       1
     8    4    5       1
     9    4   12       1
    10    5    6       1
    11    5   13       1
    12    6   14       1
    13    7    8       1
    14    7    9      am
    15    7   15       2
    16   10   37       1
    17   16   17       1
    18   16   21       1
    19   16   24       1
    20   17   18       1
    21   17   22       2
    22   18   19       1
    23   19   20       1
    24   19   23       2
    25   20   21       2
    26   24   25       1
    27   24   29       1
    28   25   26       1
    29   25   27       1
    30   27   28       1
    31   27   30       1
    32   28   29       1
    33   28   31       1
    34   31   32       1
    35   32   33       1
    36   33   34      ar
    37   33   35      ar
    38   33   36       1
    39   36   37       1
    40   37   38      ar
    41   37   39      ar
    42    1   40       1
    43    2   41       1
    44    3   42       1
    45    4   43       1
    46    5   44       1
    47    6   45       1
    48    6   46       1
    49    8   47       1
    50    8   48       1
    51    8   49       1
    52    9   50       1
    53   11   51       1
    54   12   52       1
    55   14   53       1
    56   18   54       1
    57   20   55       1
    58   21   56       1
    59   24   57       1
    60   25   58       1
    61   26   59       1
    62   27   60       1
    63   28   61       1
    64   30   62       1
    65   31   63       1
    66   31   64       1
@<TRIPOS>SUBSTRUCTURE
     1 UD1401      1 GROUP             4 B     UD1     0 **** UD1 B 401
