@<TRIPOS>MOLECULE
2ra6_ETY_1_ligand
   19    19     1     0     0
SMALL
NO_CHARGES


@<TRIPOS>ATOM
     1 C8          27.3940    37.4130    43.5080 C.3          1 ETY604   0.0000
     2 C7          26.7960    38.5060    42.6160 C.3          1 ETY604   0.0000
     3 CG          25.3010    38.4270    42.4990 C.ar         1 ETY604   0.0000
     4 C3          24.4630    38.9120    43.5350 C.ar         1 ETY604   0.0000
     5 C2          23.0570    38.8380    43.4260 C.ar         1 ETY604   0.0000
     6 C5          24.6930    37.8600    41.3430 C.ar         1 ETY604   0.0000
     7 C6          23.2890    37.7820    41.2250 C.ar         1 ETY604   0.0000
     8 C1          22.4780    38.2730    42.2720 C.ar         1 ETY604   0.0000
     9 O1          21.1150    38.2010    42.1630 O.3          1 ETY604   0.0000
    10 H1          28.3876    37.5196    43.5451 H            1 ETY604   0.0000
    11 H2          27.0157    37.4914    44.4303 H            1 ETY604   0.0000
    12 H3          27.1690    36.5147    43.1307 H            1 ETY604   0.0000
    13 H4          27.1907    38.4201    41.7012 H            1 ETY604   0.0000
    14 H5          27.0374    39.3968    43.0009 H            1 ETY604   0.0000
    15 H6          24.8735    39.3121    44.3544 H            1 ETY604   0.0000
    16 H7          22.4761    39.1842    44.1627 H            1 ETY604   0.0000
    17 H8          25.2695    37.5119    40.6038 H            1 ETY604   0.0000
    18 H9          22.8723    37.3830    40.4082 H            1 ETY604   0.0000
    19 H10         20.5354    38.5484    42.9002 H            1 ETY604   0.0000
@<TRIPOS>BOND
     1    1    2       1
     2    2    3       1
     3    3    4      ar
     4    3    6      ar
     5    4    5      ar
     6    5    8      ar
     7    6    7      ar
     8    7    8      ar
     9    8    9       1
    10    1   10       1
    11    1   11       1
    12    1   12       1
    13    2   13       1
    14    2   14       1
    15    4   15       1
    16    5   16       1
    17    6   17       1
    18    7   18       1
    19    9   19       1
@<TRIPOS>SUBSTRUCTURE
     1 ETY604      1 GROUP             4 A     ETY     0 **** ETY A 604
