@<TRIPOS>MOLECULE
4lmc_C5P_1_ligand
   35    36     1     0     0
SMALL
NO_CHARGES


@<TRIPOS>ATOM
     1 O3P         19.9250    85.4410    -5.9780 O.co2        1 C5P200   0.0000
     2 P           20.4950    84.0350    -6.3040 P.3          1 C5P200   0.0000
     3 O1P         19.3580    83.0190    -6.4570 O.co2        1 C5P200  -1.0000
     4 O2P         21.5170    84.2060    -7.3760 O.co2        1 C5P200  -1.0000
     5 O5'         21.2280    83.4850    -5.0040 O.3          1 C5P200   0.0000
     6 C5'         20.5020    83.3100    -3.7960 C.3          1 C5P200   0.0000
     7 C4'         21.2980    83.7820    -2.6010 C.3          1 C5P200   0.0000
     8 O4'         21.0290    85.2040    -2.3550 O.3          1 C5P200   0.0000
     9 C3'         20.9370    83.0820    -1.3070 C.3          1 C5P200   0.0000
    10 O3'         22.0480    83.1450    -0.4160 O.3          1 C5P200   0.0000
    11 C2'         19.7700    83.9460    -0.8060 C.3          1 C5P200   0.0000
    12 O2'         19.4490    83.8780     0.5640 O.3          1 C5P200   0.0000
    13 C1'         20.2460    85.3170    -1.1960 C.3          1 C5P200   0.0000
    14 N1          19.4100    86.4850    -0.9990 N.am         1 C5P200   0.0000
    15 C2          19.1680    87.4390    -2.1610 C.2          1 C5P200   0.0000
    16 N3          18.1620    88.6560    -1.8990 N.am         1 C5P200   0.0000
    17 C4          17.5110    88.8030    -0.6400 C.2          1 C5P200   0.0000
    18 C5          17.7800    87.7670     0.5570 C.2          1 C5P200   0.0000
    19 C6          18.7250    86.5970     0.3680 C.3          1 C5P200   0.0000
    20 O2          19.7270    87.2990    -3.2540 O.2          1 C5P200   0.0000
    21 N4          16.5550    90.0240    -0.4370 N.pl3        1 C5P200   0.0000
    22 H5'1        20.2887    82.3397    -3.6822 H            1 C5P200   0.0000
    23 H5'2        19.6520    83.8342    -3.8484 H            1 C5P200   0.0000
    24 H4'         22.2732    83.6570    -2.7834 H            1 C5P200   0.0000
    25 H3'         20.6505    82.1377    -1.4690 H            1 C5P200   0.0000
    26 H5          21.7792    83.6260     0.4185 H            1 C5P200   0.0000
    27 H2'         18.9535    83.7248    -1.3393 H            1 C5P200   0.0000
    28 H7          19.2026    82.9386     0.8024 H            1 C5P200   0.0000
    29 H1'         20.9530    85.4736    -0.5063 H            1 C5P200   0.0000
    30 H9          17.9885    89.3200    -2.6263 H            1 C5P200   0.0000
    31 H10         17.3197    87.8949     1.4355 H            1 C5P200   0.0000
    32 H11         19.4415    86.6700     1.0618 H            1 C5P200   0.0000
    33 H12         18.2023    85.7574     0.5156 H            1 C5P200   0.0000
    34 H13         16.0852    90.1514     0.4366 H            1 C5P200   0.0000
    35 H14         16.4135    90.6773    -1.1808 H            1 C5P200   0.0000
@<TRIPOS>BOND
     1    1    2      ar
     2    2    3      ar
     3    2    4      ar
     4    2    5       1
     5    5    6       1
     6    6    7       1
     7    7    8       1
     8    7    9       1
     9    8   13       1
    10    9   10       1
    11    9   11       1
    12   11   12       1
    13   11   13       1
    14   13   14       1
    15   14   15      am
    16   14   19       1
    17   15   16      am
    18   15   20       2
    19   16   17       1
    20   17   18       2
    21   17   21       1
    22   18   19       1
    23   21   35       1
    24   21   34       1
    25    6   22       1
    26    6   23       1
    27    7   24       1
    28    9   25       1
    29   10   26       1
    30   11   27       1
    31   12   28       1
    32   13   29       1
    33   16   30       1
    34   18   31       1
    35   19   32       1
    36   19   33       1
@<TRIPOS>SUBSTRUCTURE
     1 C5P200      1 GROUP             4 A     C5P     0 **** C5P A 200
