@<TRIPOS>MOLECULE
4agq_P96_1_ligand
   63    65     1     0     0
SMALL
NO_CHARGES


@<TRIPOS>ATOM
     1 C           90.8850    91.8020   -50.1560 C.ar         1 P961291   0.0000
     2 N           91.0760    89.9140   -48.5970 N.pl3        1 P961291   0.0000
     3 C01         91.5330    93.4550   -45.3070 C.ar         1 P961291   0.0000
     4 C1          90.7800    95.7390   -44.9640 C.ar         1 P961291   0.0000
     5 N1          90.6830    98.2530   -44.8460 N.4          1 P961291   1.0000
     6 O1          90.9230    96.7270   -42.7950 O.3          1 P961291  -1.0000
     7 C02         91.8810    93.3660   -43.9520 C.ar         1 P961291   0.0000
     8 C2          90.1810    96.9990   -45.5280 C.3          1 P961291   0.0000
     9 N2          91.9400   102.3560   -44.2570 N.4          1 P961291   1.0000
    10 C03         89.6400    99.3320   -44.9180 C.3          1 P961291   0.0000
    11 C3          90.9950    94.6440   -45.8120 C.ar         1 P961291   0.0000
    12 C04         91.7590    92.3600   -46.1960 C.1          1 P961291   0.0000
    13 C4          91.6780    94.4580   -43.0960 C.ar         1 P961291   0.0000
    14 C05         91.9620    91.4750   -46.9830 C.1          1 P961291   0.0000
    15 C06         92.2560    90.3680   -47.9040 C.3          1 P961291   0.0000
    16 C07         90.3620    90.6810   -49.5060 C.ar         1 P961291   0.0000
    17 C7          91.1240    95.6340   -43.6080 C.ar         1 P961291   0.0000
    18 C08         89.0360    90.3300   -49.7960 C.ar         1 P961291   0.0000
    19 C8          90.1590   100.5540   -44.1790 C.3          1 P961291   0.0000
    20 C09         88.2670    91.0680   -50.7030 C.ar         1 P961291   0.0000
    21 C10         91.4680   101.0070   -44.8210 C.3          1 P961291   0.0000
    22 C12         90.0990   103.9410   -44.8990 C.3          1 P961291   0.0000
    23 C13         93.0260   102.2730   -43.2010 C.3          1 P961291   0.0000
    24 C14         93.6440   103.6430   -42.9800 C.3          1 P961291   0.0000
    25 C15         92.5330    99.9110   -44.6780 C.3          1 P961291   0.0000
    26 C16         92.0460    98.6390   -45.3540 C.3          1 P961291   0.0000
    27 C17         88.8110    92.1780   -51.3390 C.ar         1 P961291   0.0000
    28 C18         90.1280    92.5440   -51.0680 C.ar         1 P961291   0.0000
    29 I2          92.1690    94.3450   -41.0290 I            1 P961291   0.0000
    30 C11         90.7760   103.2160   -43.7470 C.3          1 P961291   0.0000
    31 H1          91.8258    92.0811   -49.9638 H            1 P961291   0.0000
    32 H2          90.7515    88.9867   -48.4104 H            1 P961291   0.0000
    33 H3          92.2759    92.5198   -43.5941 H            1 P961291   0.0000
    34 H4          89.1877    96.9546   -45.4210 H            1 P961291   0.0000
    35 H5          90.4095    97.0524   -46.5001 H            1 P961291   0.0000
    36 H6          88.7944    99.0129   -44.4901 H            1 P961291   0.0000
    37 H7          89.4622    99.5661   -45.8738 H            1 P961291   0.0000
    38 H8          90.7629    94.7127   -46.7823 H            1 P961291   0.0000
    39 H9          92.9268    90.6780   -48.5777 H            1 P961291   0.0000
    40 H10         92.6367    89.6054   -47.3810 H            1 P961291   0.0000
    41 H11         88.6308    89.5349   -49.3449 H            1 P961291   0.0000
    42 H12         90.3192   100.3222   -43.2195 H            1 P961291   0.0000
    43 H13         89.4854   101.2909   -44.2359 H            1 P961291   0.0000
    44 H14         87.3238    90.7962   -50.8941 H            1 P961291   0.0000
    45 H15         91.2958   101.1333   -45.7979 H            1 P961291   0.0000
    46 H16         89.3446   104.4950   -44.5469 H            1 P961291   0.0000
    47 H17         90.7625   104.5333   -45.3560 H            1 P961291   0.0000
    48 H18         89.7445   103.2716   -45.5519 H            1 P961291   0.0000
    49 H19         93.7343   101.6355   -43.5042 H            1 P961291   0.0000
    50 H20         92.6290   101.9468   -42.3431 H            1 P961291   0.0000
    51 H21         94.3580   103.5781   -42.2829 H            1 P961291   0.0000
    52 H22         94.0430   103.9708   -43.8364 H            1 P961291   0.0000
    53 H23         92.9378   104.2820   -42.6752 H            1 P961291   0.0000
    54 H24         92.6977    99.7309   -43.7082 H            1 P961291   0.0000
    55 H25         93.3827   100.2136   -45.1099 H            1 P961291   0.0000
    56 H26         91.9973    98.7903   -46.3413 H            1 P961291   0.0000
    57 H27         92.6896    97.8982   -45.1616 H            1 P961291   0.0000
    58 H28         88.2624    92.7088   -51.9849 H            1 P961291   0.0000
    59 H29         90.5314    93.3366   -51.5253 H            1 P961291   0.0000
    60 H30         91.1260   103.8893   -43.0957 H            1 P961291   0.0000
    61 H31         90.1080   102.6275   -43.2915 H            1 P961291   0.0000
    62 H32         90.7929    98.0267   -43.8782 H            1 P961291   0.0000
    63 H33         92.3381   102.8552   -45.0266 H            1 P961291   0.0000
@<TRIPOS>BOND
     1    1   16      ar
     2    1   28      ar
     3    2   15       1
     4    2   16       1
     5    3    7      ar
     6    3   11      ar
     7    3   12       1
     8    4    8       1
     9    4   11      ar
    10    4   17      ar
    11    5    8       1
    12    5   10       1
    13    5   26       1
    14    6   17       1
    15    7   13      ar
    16    9   21       1
    17    9   23       1
    18    9   30       1
    19   10   19       1
    20   12   14       3
    21   13   17      ar
    22   13   29       1
    23   14   15       1
    24   16   18      ar
    25   18   20      ar
    26   19   21       1
    27   20   27      ar
    28   21   25       1
    29   22   30       1
    30   23   24       1
    31   25   26       1
    32   27   28      ar
    33    1   31       1
    34    2   32       1
    35    9   63       1
    36    7   33       1
    37    8   34       1
    38    8   35       1
    39   10   36       1
    40   10   37       1
    41   11   38       1
    42   15   39       1
    43   15   40       1
    44   18   41       1
    45   19   42       1
    46   19   43       1
    47   20   44       1
    48   21   45       1
    49   22   46       1
    50   22   47       1
    51   22   48       1
    52   23   49       1
    53   23   50       1
    54   24   51       1
    55   24   52       1
    56   24   53       1
    57   25   54       1
    58   25   55       1
    59   26   56       1
    60   26   57       1
    61   27   58       1
    62   28   59       1
    63   30   60       1
    64   30   61       1
    65    5   62       1
@<TRIPOS>SUBSTRUCTURE
     1 P961291     1 GROUP             4 A     P96     0 **** P96 A1291
