@<TRIPOS>MOLECULE
1mvn_FMN_1_ligand
   50    52     1     0     0
SMALL
NO_CHARGES


@<TRIPOS>ATOM
     1 N1          63.6620    20.0130   -16.6560 N.2          1 FMN1002   0.0000
     2 C2          63.2880    19.2110   -15.6050 C.2          1 FMN1002   0.0000
     3 O2          62.6120    19.5830   -14.7010 O.2          1 FMN1002   0.0000
     4 N3          63.7270    17.8510   -15.5800 N.pl3        1 FMN1002   0.0000
     5 C4          64.5090    17.2650   -16.5260 C.2          1 FMN1002   0.0000
     6 O4          64.8590    16.0930   -16.3960 O.2          1 FMN1002   0.0000
     7 C4A         64.9380    18.1310   -17.6460 C.2          1 FMN1002   0.0000
     8 N5          65.6740    17.6570   -18.6480 N.2          1 FMN1002   0.0000
     9 C5A         65.9140    18.4630   -19.7490 C.ar         1 FMN1002   0.0000
    10 C6          66.6410    17.9250   -20.8800 C.ar         1 FMN1002   0.0000
    11 C7          67.0550    18.6790   -21.9480 C.ar         1 FMN1002   0.0000
    12 C7M         67.8090    18.0400   -23.1090 C.3          1 FMN1002   0.0000
    13 C8          66.5480    20.0570   -22.1030 C.ar         1 FMN1002   0.0000
    14 C8M         66.8710    20.8730   -23.3330 C.3          1 FMN1002   0.0000
    15 C9          65.8710    20.6130   -21.0120 C.ar         1 FMN1002   0.0000
    16 C9A         65.5350    19.8690   -19.8320 C.ar         1 FMN1002   0.0000
    17 N10         64.8330    20.3790   -18.6900 N.pl3        1 FMN1002   0.0000
    18 C10         64.4330    19.5450   -17.6340 C.2          1 FMN1002   0.0000
    19 C1'         64.3770    21.8050   -18.6680 C.3          1 FMN1002   0.0000
    20 C2'         62.9030    21.9030   -19.1250 C.3          1 FMN1002   0.0000
    21 O2'         62.6640    21.3740   -20.4320 O.3          1 FMN1002   0.0000
    22 C3'         62.4040    23.3830   -19.0810 C.3          1 FMN1002   0.0000
    23 O3'         62.4600    23.9150   -17.7160 O.3          1 FMN1002   0.0000
    24 C4'         60.9940    23.5970   -19.6070 C.3          1 FMN1002   0.0000
    25 O4'         60.6420    24.9960   -19.6850 O.3          1 FMN1002   0.0000
    26 C5'         59.9130    22.8360   -18.8610 C.3          1 FMN1002   0.0000
    27 O5'         58.6530    23.0040   -19.5160 O.3          1 FMN1002   0.0000
    28 P           57.3380    22.5000   -18.8300 P.3          1 FMN1002   0.0000
    29 O1P         57.2870    23.1770   -17.4920 O.co2        1 FMN1002   0.0000
    30 O2P         57.3980    21.0530   -18.7060 O.co2        1 FMN1002  -1.0000
    31 O3P         56.1910    22.9560   -19.7360 O.co2        1 FMN1002  -1.0000
    32 H1          63.4367    17.2867   -14.8072 H            1 FMN1002   0.0000
    33 H2          66.8533    16.9478   -20.8823 H            1 FMN1002   0.0000
    34 H7M1        68.0274    18.7392   -23.7898 H            1 FMN1002   0.0000
    35 H7M2        68.6552    17.6284   -22.7706 H            1 FMN1002   0.0000
    36 H7M3        67.2389    17.3333   -23.5280 H            1 FMN1002   0.0000
    37 H8M1        66.4429    21.7735   -23.2575 H            1 FMN1002   0.0000
    38 H8M2        67.8621    20.9806   -23.4108 H            1 FMN1002   0.0000
    39 H8M3        66.5218    20.4049   -24.1447 H            1 FMN1002   0.0000
    40 H9          65.6083    21.5768   -21.0569 H            1 FMN1002   0.0000
    41 H1'1        64.9503    22.3444   -19.2847 H            1 FMN1002   0.0000
    42 H1'2        64.4588    22.1634   -17.7380 H            1 FMN1002   0.0000
    43 H2'         62.3496    21.3771   -18.4791 H            1 FMN1002   0.0000
    44 H13         62.4358    20.4029   -20.3620 H            1 FMN1002   0.0000
    45 H3'         63.0239    23.9288   -19.6447 H            1 FMN1002   0.0000
    46 H15         62.3239    23.1706   -17.0623 H            1 FMN1002   0.0000
    47 H4'         60.9869    23.2511   -20.5452 H            1 FMN1002   0.0000
    48 H17         59.7096    25.0861   -20.0349 H            1 FMN1002   0.0000
    49 H5'1        59.8487    23.1843   -17.9258 H            1 FMN1002   0.0000
    50 H5'2        60.1476    21.8641   -18.8394 H            1 FMN1002   0.0000
@<TRIPOS>BOND
     1    1    2       1
     2    1   18       2
     3    2    3       2
     4    2    4       1
     5    4    5       1
     6    5    6       2
     7    5    7       1
     8    7    8       2
     9    7   18       1
    10    8    9       1
    11    9   10      ar
    12    9   16      ar
    13   10   11      ar
    14   11   12       1
    15   11   13      ar
    16   13   14       1
    17   13   15      ar
    18   15   16      ar
    19   16   17       1
    20   17   18       1
    21   17   19       1
    22   19   20       1
    23   20   21       1
    24   20   22       1
    25   22   23       1
    26   22   24       1
    27   24   25       1
    28   24   26       1
    29   26   27       1
    30   27   28       1
    31   28   29      ar
    32   28   30      ar
    33   28   31      ar
    34    4   32       1
    35   10   33       1
    36   12   34       1
    37   12   35       1
    38   12   36       1
    39   14   37       1
    40   14   38       1
    41   14   39       1
    42   15   40       1
    43   19   41       1
    44   19   42       1
    45   20   43       1
    46   21   44       1
    47   22   45       1
    48   23   46       1
    49   24   47       1
    50   25   48       1
    51   26   49       1
    52   26   50       1
@<TRIPOS>SUBSTRUCTURE
     1 FMN1002     1 GROUP             4 A     FMN     0 **** FMN A1002
