@<TRIPOS>MOLECULE
2zoz_ET_1_ligand
   44    47     1     0     0
SMALL
NO_CHARGES


@<TRIPOS>ATOM
     1 C1          44.2960    36.9810    38.3640 C.ar         1 ET184    0.0000
     2 C2          43.4220    37.7340    37.5890 C.ar         1 ET184    0.0000
     3 C3          42.6480    38.7650    38.1720 C.ar         1 ET184    0.0000
     4 C4          42.7510    39.0440    39.5360 C.ar         1 ET184    0.0000
     5 N5          43.7510    38.5540    41.7620 N.ar         1 ET184    1.0000
     6 C6          44.5790    37.8420    42.5970 C.ar         1 ET184    0.0000
     7 C7          46.3160    35.9770    42.8730 C.ar         1 ET184    0.0000
     8 C8          47.0970    34.9600    42.3250 C.ar         1 ET184    0.0000
     9 C9          47.0250    34.6640    40.9390 C.ar         1 ET184    0.0000
    10 C10         46.1760    35.3820    40.1020 C.ar         1 ET184    0.0000
    11 C11         45.4300    36.7430    42.0460 C.ar         1 ET184    0.0000
    12 C12         45.3600    36.4350    40.6250 C.ar         1 ET184    0.0000
    13 C13         44.4300    37.2320    39.7700 C.ar         1 ET184    0.0000
    14 C14         43.6450    38.2870    40.3890 C.ar         1 ET184    0.0000
    15 C15         44.6660    38.1080    44.0910 C.ar         1 ET184    0.0000
    16 C16         45.6890    38.9130    44.6710 C.ar         1 ET184    0.0000
    17 C17         45.7220    39.1000    46.0690 C.ar         1 ET184    0.0000
    18 C18         44.7490    38.4940    46.9010 C.ar         1 ET184    0.0000
    19 C19         43.7300    37.6970    46.3400 C.ar         1 ET184    0.0000
    20 C20         43.6830    37.4990    44.9480 C.ar         1 ET184    0.0000
    21 C21         42.9180    39.6630    42.3260 C.3          1 ET184    0.0000
    22 C22         43.6430    41.0130    42.1110 C.3          1 ET184    0.0000
    23 N23         41.7740    39.5170    37.3820 N.pl3        1 ET184    0.0000
    24 N24         47.9540    34.2350    43.1570 N.pl3        1 ET184    0.0000
    25 H1          44.8372    36.2566    37.9370 H            1 ET184    0.0000
    26 H2          43.3394    37.5454    36.6104 H            1 ET184    0.0000
    27 H3          42.1988    39.7783    39.9309 H            1 ET184    0.0000
    28 H4          46.3744    36.1738    43.8517 H            1 ET184    0.0000
    29 H5          47.5904    33.9316    40.5596 H            1 ET184    0.0000
    30 H6          46.1358    35.1604    39.1277 H            1 ET184    0.0000
    31 H7          46.3800    39.3432    44.0900 H            1 ET184    0.0000
    32 H8          46.4390    39.6657    46.4763 H            1 ET184    0.0000
    33 H9          44.7849    38.6320    47.8908 H            1 ET184    0.0000
    34 H10         43.0426    37.2736    46.9301 H            1 ET184    0.0000
    35 H11         42.9617    36.9313    44.5512 H            1 ET184    0.0000
    36 H12         42.7793    39.5112    43.3046 H            1 ET184    0.0000
    37 H13         42.0319    39.6830    41.8629 H            1 ET184    0.0000
    38 H14         43.0868    41.7538    42.4876 H            1 ET184    0.0000
    39 H15         44.5291    40.9929    42.5741 H            1 ET184    0.0000
    40 H16         43.7817    41.1647    41.1324 H            1 ET184    0.0000
    41 H17         41.2275    40.2454    37.7953 H            1 ET184    0.0000
    42 H18         41.6951    39.3266    36.4035 H            1 ET184    0.0000
    43 H19         48.5194    33.5032    42.7766 H            1 ET184    0.0000
    44 H20         48.0019    34.4480    44.1329 H            1 ET184    0.0000
@<TRIPOS>BOND
     1    1    2      ar
     2    1   13      ar
     3    2    3      ar
     4    3    4      ar
     5    3   23       1
     6    4   14      ar
     7    5    6      ar
     8    5   14      ar
     9    5   21       1
    10    6   11      ar
    11    6   15       1
    12    7    8      ar
    13    7   11      ar
    14    8    9      ar
    15    8   24       1
    16    9   10      ar
    17   10   12      ar
    18   11   12      ar
    19   12   13      ar
    20   13   14      ar
    21   15   16      ar
    22   15   20      ar
    23   16   17      ar
    24   17   18      ar
    25   18   19      ar
    26   19   20      ar
    27   21   22       1
    28    1   25       1
    29    2   26       1
    30    4   27       1
    31    7   28       1
    32    9   29       1
    33   10   30       1
    34   16   31       1
    35   17   32       1
    36   18   33       1
    37   19   34       1
    38   20   35       1
    39   21   36       1
    40   21   37       1
    41   22   38       1
    42   22   39       1
    43   22   40       1
    44   23   41       1
    45   23   42       1
    46   24   43       1
    47   24   44       1
@<TRIPOS>SUBSTRUCTURE
     1 ET184       1 GROUP             4 B      ET     0 ****  ET B 184
