@<TRIPOS>MOLECULE
4feu_537_2_ligand
   25    28     1     0     0
SMALL
NO_CHARGES


@<TRIPOS>ATOM
     1 C1         -58.6640    50.8610   -43.3940 C.ar         1 537302   0.0000
     2 C2         -58.6820    50.1790   -44.6090 C.ar         1 537302   0.0000
     3 C3         -58.4320    48.8010   -44.6180 C.ar         1 537302   0.0000
     4 C4         -58.1640    48.0890   -43.4200 C.ar         1 537302   0.0000
     5 C5         -58.1320    48.7970   -42.2120 C.ar         1 537302   0.0000
     6 C6         -58.3950    50.1710   -42.2020 C.ar         1 537302   0.0000
     7 C11        -58.3020    46.7440   -45.7950 C.ar         1 537302   0.0000
     8 C12        -58.2940    46.2740   -47.0820 C.ar         1 537302   0.0000
     9 C13        -58.1020    44.8990   -47.2730 C.ar         1 537302   0.0000
    10 C14        -57.8260    44.0950   -46.1510 C.ar         1 537302   0.0000
    11 C15        -57.7540    44.6360   -44.8460 C.ar         1 537302   0.0000
    12 C16        -57.9460    46.0130   -44.6720 C.ar         1 537302   0.0000
    13 C20        -57.9180    46.6890   -43.4430 C.2          1 537302   0.0000
    14 C21        -58.4610    48.1050   -45.8340 C.2          1 537302   0.0000
    15 O22        -57.6920    46.0690   -42.4000 O.2          1 537302   0.0000
    16 N23        -58.6490    48.3870   -47.1290 N.2          1 537302   0.0000
    17 N24        -58.5790    47.3500   -47.8320 N.pl3        1 537302   0.0000
    18 H1         -58.8432    51.8446   -43.3714 H            1 537302   0.0000
    19 H2         -58.8706    50.6662   -45.4617 H            1 537302   0.0000
    20 H3         -57.9215    48.3212   -41.3580 H            1 537302   0.0000
    21 H4         -58.3913    50.6679   -41.3342 H            1 537302   0.0000
    22 H5         -58.1598    44.4975   -48.1870 H            1 537302   0.0000
    23 H6         -57.6768    43.1147   -46.2800 H            1 537302   0.0000
    24 H7         -57.5691    44.0454   -44.0605 H            1 537302   0.0000
    25 H8         -58.7175    47.3281   -48.8221 H            1 537302   0.0000
@<TRIPOS>BOND
     1    1    2      ar
     2    1    6      ar
     3    2    3      ar
     4    3    4      ar
     5    3   14       1
     6    4    5      ar
     7    4   13       1
     8    5    6      ar
     9    7    8      ar
    10    7   12      ar
    11    7   14       1
    12    8    9      ar
    13    8   17       1
    14    9   10      ar
    15   10   11      ar
    16   11   12      ar
    17   12   13       1
    18   13   15       2
    19   14   16       2
    20   16   17       1
    21    1   18       1
    22    2   19       1
    23    5   20       1
    24    6   21       1
    25    9   22       1
    26   10   23       1
    27   11   24       1
    28   17   25       1
@<TRIPOS>SUBSTRUCTURE
     1 537302      1 GROUP             4 C     537     0 **** 537 C 302
