@<TRIPOS>MOLECULE
2qae_FAD_2_ligand
   84    89     1     0     0
SMALL
NO_CHARGES


@<TRIPOS>ATOM
     1 PA         -33.0430    38.3120    27.5830 P.3          1 FAD480   0.0000
     2 O1A        -33.5820    39.3330    28.5680 O.co2        1 FAD480   0.0000
     3 O2A        -34.5410    37.9470    27.1100 O.co2        1 FAD480  -1.0000
     4 O5B        -32.7340    38.3880    26.0120 O.3          1 FAD480   0.0000
     5 C5B        -33.0590    39.5370    25.6200 C.3          1 FAD480   0.0000
     6 C4B        -32.4070    39.9680    24.3700 C.3          1 FAD480   0.0000
     7 O4B        -31.7670    39.2180    23.3390 O.3          1 FAD480   0.0000
     8 C3B        -33.3910    40.9510    23.9600 C.3          1 FAD480   0.0000
     9 O3B        -33.0650    42.2020    24.4270 O.3          1 FAD480   0.0000
    10 C2B        -33.3810    40.6620    22.4140 C.3          1 FAD480   0.0000
    11 O2B        -33.7030    41.7930    21.7050 O.3          1 FAD480   0.0000
    12 C1B        -31.9410    40.1040    22.2020 C.3          1 FAD480   0.0000
    13 N9A        -31.7060    39.2990    20.9900 N.pl3        1 FAD480   0.0000
    14 C8A        -32.2390    38.0600    20.6630 C.2          1 FAD480   0.0000
    15 N7A        -31.7550    37.6570    19.5370 N.2          1 FAD480   0.0000
    16 C5A        -30.8890    38.5970    19.0680 C.ar         1 FAD480   0.0000
    17 C6A        -30.0570    38.7230    17.9250 C.ar         1 FAD480   0.0000
    18 N6A        -30.0240    37.7100    16.9870 N.pl3        1 FAD480   0.0000
    19 N1A        -29.2960    39.8400    17.7860 N.ar         1 FAD480   0.0000
    20 C2A        -29.3110    40.8240    18.6930 C.ar         1 FAD480   0.0000
    21 N3A        -30.0770    40.7370    19.7870 N.ar         1 FAD480   0.0000
    22 C4A        -30.8620    39.6640    20.0000 C.ar         1 FAD480   0.0000
    23 N1         -37.1000    37.0420    36.3330 N.2          1 FAD480   0.0000
    24 C2         -36.7150    37.3050    37.5970 C.2          1 FAD480   0.0000
    25 O2         -35.7270    36.7410    38.0720 O.2          1 FAD480   0.0000
    26 N3         -37.3650    38.1740    38.3950 N.pl3        1 FAD480   0.0000
    27 C4         -38.4800    38.8370    38.0050 C.2          1 FAD480   0.0000
    28 O4         -39.0200    39.6150    38.7560 O.2          1 FAD480   0.0000
    29 C4X        -39.0090    38.5760    36.6500 C.2          1 FAD480   0.0000
    30 N5         -40.1020    39.1260    36.1840 N.2          1 FAD480   0.0000
    31 C5X        -40.5450    38.8890    34.9330 C.ar         1 FAD480   0.0000
    32 C6         -41.7610    39.4890    34.4770 C.ar         1 FAD480   0.0000
    33 C7         -42.1950    39.2560    33.1710 C.ar         1 FAD480   0.0000
    34 C7M        -43.4870    39.9120    32.7290 C.3          1 FAD480   0.0000
    35 C8         -41.4230    38.4200    32.2760 C.ar         1 FAD480   0.0000
    36 C8M        -41.8640    38.1600    30.8300 C.3          1 FAD480   0.0000
    37 C9         -40.2540    37.8180    32.7170 C.ar         1 FAD480   0.0000
    38 C9A        -39.7930    38.0240    34.0350 C.ar         1 FAD480   0.0000
    39 N10        -38.6280    37.4020    34.5150 N.pl3        1 FAD480   0.0000
    40 C10        -38.2120    37.6320    35.7970 C.2          1 FAD480   0.0000
    41 C1'        -37.8040    36.4830    33.7190 C.3          1 FAD480   0.0000
    42 C2'        -36.6110    37.3120    33.1830 C.3          1 FAD480   0.0000
    43 O2'        -37.0410    38.4480    32.3870 O.3          1 FAD480   0.0000
    44 C3'        -35.6870    36.3080    32.4790 C.3          1 FAD480   0.0000
    45 O3'        -35.2540    35.1950    33.1900 O.3          1 FAD480   0.0000
    46 C4'        -34.5510    37.0170    31.8260 C.3          1 FAD480   0.0000
    47 O4'        -34.7660    38.1970    31.0380 O.3          1 FAD480   0.0000
    48 C5'        -33.4020    36.0130    31.3910 C.3          1 FAD480   0.0000
    49 O5'        -32.9800    36.5850    30.3340 O.3          1 FAD480   0.0000
    50 P          -31.7800    36.7860    29.3110 P.3          1 FAD480   0.0000
    51 O1P        -30.5870    37.7000    29.3200 O.co2        1 FAD480   0.0000
    52 O2P        -31.2960    35.3160    29.0830 O.co2        1 FAD480  -1.0000
    53 O3P        -32.9140    37.0610    28.1700 O.3          1 FAD480   0.0000
    54 H5B1       -32.8193    40.1906    26.3379 H            1 FAD480   0.0000
    55 H5B2       -34.0484    39.5487    25.4754 H            1 FAD480   0.0000
    56 H4B        -31.6615    40.5428    24.7074 H            1 FAD480   0.0000
    57 H3B        -34.2821    40.6900    24.3313 H            1 FAD480   0.0000
    58 H5         -32.4931    42.6706    23.7537 H            1 FAD480   0.0000
    59 H2B        -34.0461    39.9440    22.2088 H            1 FAD480   0.0000
    60 H7         -33.0364    42.5116    21.9031 H            1 FAD480   0.0000
    61 H1B        -31.2771    40.8504    22.2482 H            1 FAD480   0.0000
    62 H8A        -32.9000    37.5547    21.2177 H            1 FAD480   0.0000
    63 H6A1       -29.4393    37.7945    16.1802 H            1 FAD480   0.0000
    64 H6A2       -30.5848    36.8920    17.1146 H            1 FAD480   0.0000
    65 H2A        -28.7427    41.6345    18.5515 H            1 FAD480   0.0000
    66 H13        -37.0090    38.3367    39.3152 H            1 FAD480   0.0000
    67 H14        -42.2961    40.0710    35.0893 H            1 FAD480   0.0000
    68 H7M1       -43.6792    39.6635    31.7796 H            1 FAD480   0.0000
    69 H7M2       -44.2361    39.6001    33.3134 H            1 FAD480   0.0000
    70 H7M3       -43.3985    40.9054    32.8022 H            1 FAD480   0.0000
    71 H8M1       -41.1999    37.5619    30.3814 H            1 FAD480   0.0000
    72 H8M2       -42.7622    37.7204    30.8294 H            1 FAD480   0.0000
    73 H8M3       -41.9174    39.0281    30.3366 H            1 FAD480   0.0000
    74 H21        -39.7331    37.2328    32.0956 H            1 FAD480   0.0000
    75 H1'1       -38.3367    36.1127    32.9580 H            1 FAD480   0.0000
    76 H1'2       -37.4735    35.7322    34.2909 H            1 FAD480   0.0000
    77 H2'        -36.1160    37.6709    33.9743 H            1 FAD480   0.0000
    78 H25        -36.3485    38.6512    31.6948 H            1 FAD480   0.0000
    79 H3'        -36.2307    35.9392    31.7251 H            1 FAD480   0.0000
    80 H27        -35.1054    34.4335    32.5591 H            1 FAD480   0.0000
    81 H4'        -34.1220    37.4268    32.6310 H            1 FAD480   0.0000
    82 H29        -34.4476    38.0365    30.1037 H            1 FAD480   0.0000
    83 H5'1       -33.7629    35.1006    31.1978 H            1 FAD480   0.0000
    84 H5'2       -32.6861    35.9480    32.0862 H            1 FAD480   0.0000
@<TRIPOS>BOND
     1    1    2      ar
     2    1    3      ar
     3    1    4       1
     4    1   53       1
     5    4    5       1
     6    5    6       1
     7    6    7       1
     8    6    8       1
     9    7   12       1
    10    8    9       1
    11    8   10       1
    12   10   11       1
    13   10   12       1
    14   12   13       1
    15   13   14       1
    16   13   22       1
    17   14   15       2
    18   15   16       1
    19   16   17      ar
    20   16   22      ar
    21   17   18       1
    22   17   19      ar
    23   19   20      ar
    24   20   21      ar
    25   21   22      ar
    26   23   24       1
    27   23   40       2
    28   24   25       2
    29   24   26       1
    30   26   27       1
    31   27   28       2
    32   27   29       1
    33   29   30       2
    34   29   40       1
    35   30   31       1
    36   31   32      ar
    37   31   38      ar
    38   32   33      ar
    39   33   34       1
    40   33   35      ar
    41   35   36       1
    42   35   37      ar
    43   37   38      ar
    44   38   39       1
    45   39   40       1
    46   39   41       1
    47   41   42       1
    48   42   43       1
    49   42   44       1
    50   44   45       1
    51   44   46       1
    52   46   47       1
    53   46   48       1
    54   48   49       1
    55   49   50       1
    56   50   51      ar
    57   50   52      ar
    58   50   53       1
    59   48   84       1
    60    5   54       1
    61    5   55       1
    62    6   56       1
    63    8   57       1
    64    9   58       1
    65   10   59       1
    66   11   60       1
    67   12   61       1
    68   14   62       1
    69   18   63       1
    70   18   64       1
    71   20   65       1
    72   26   66       1
    73   32   67       1
    74   34   68       1
    75   34   69       1
    76   34   70       1
    77   36   71       1
    78   36   72       1
    79   36   73       1
    80   37   74       1
    81   41   75       1
    82   41   76       1
    83   42   77       1
    84   43   78       1
    85   44   79       1
    86   45   80       1
    87   46   81       1
    88   47   82       1
    89   48   83       1
@<TRIPOS>SUBSTRUCTURE
     1 FAD480      1 GROUP             4 B     FAD     0 **** FAD B 480
