@<TRIPOS>MOLECULE
1zbd_GTP_1_ligand
   44    46     1     0     0
SMALL
NO_CHARGES


@<TRIPOS>ATOM
     1 PG           9.3340    13.3850    10.1250 P.3          1 GTP303   0.0000
     2 O1G         10.3500    13.9510    11.0750 O.co2        1 GTP303   0.0000
     3 O2G          7.9650    13.0950    10.6680 O.co2        1 GTP303  -1.0000
     4 O3G          9.8980    11.9800     9.6120 O.co2        1 GTP303  -1.0000
     5 O3B          9.2820    14.3580     8.7520 O.3          1 GTP303   0.0000
     6 PB          10.5840    15.0980     8.1130 P.3          1 GTP303   0.0000
     7 O1B         11.0110    16.0420     9.1460 O.co2        1 GTP303   0.0000
     8 O2B         11.6200    14.1320     7.7210 O.co2        1 GTP303  -1.0000
     9 O3A         10.1330    15.9450     6.7900 O.3          1 GTP303   0.0000
    10 PA           9.7140    15.4000     5.2460 P.3          1 GTP303   0.0000
    11 O1A         10.9400    15.3490     4.3840 O.co2        1 GTP303   0.0000
    12 O2A          8.7290    14.2890     5.2540 O.co2        1 GTP303  -1.0000
    13 O5'          8.8680    16.5780     4.5760 O.3          1 GTP303   0.0000
    14 C5'          7.6640    17.1200     5.1250 C.3          1 GTP303   0.0000
    15 C4'          7.0900    18.1950     4.1950 C.3          1 GTP303   0.0000
    16 O4'          7.9580    19.3240     3.7840 O.3          1 GTP303   0.0000
    17 C3'          6.6870    17.4600     2.9130 C.3          1 GTP303   0.0000
    18 O3'          5.3090    17.7600     2.6510 O.3          1 GTP303   0.0000
    19 C2'          7.7060    17.9020     1.8430 C.3          1 GTP303   0.0000
    20 O2'          7.2200    17.8500     0.4490 O.3          1 GTP303   0.0000
    21 C1'          8.0440    19.3240     2.3460 C.3          1 GTP303   0.0000
    22 N9           9.4020    19.7680     2.0920 N.pl3        1 GTP303   0.0000
    23 C8          10.5870    19.1770     2.3690 C.2          1 GTP303   0.0000
    24 N7          11.6720    19.8240     2.0160 N.2          1 GTP303   0.0000
    25 C5          11.1450    20.9680     1.4430 C.2          1 GTP303   0.0000
    26 C6          11.7870    22.1130     0.8470 C.2          1 GTP303   0.0000
    27 O6          12.9650    22.3450     0.7070 O.2          1 GTP303   0.0000
    28 N1          10.8880    23.0720     0.3750 N.pl3        1 GTP303   0.0000
    29 C2           9.4900    22.9610     0.4540 C.2          1 GTP303   0.0000
    30 N2           8.7380    23.9510    -0.0650 N.pl3        1 GTP303   0.0000
    31 N3           8.8870    21.8810     1.0210 N.2          1 GTP303   0.0000
    32 C4           9.7590    20.9300     1.4900 C.2          1 GTP303   0.0000
    33 H5'1         7.8624    17.5272     6.0165 H            1 GTP303   0.0000
    34 H5'2         6.9928    16.3870     5.2352 H            1 GTP303   0.0000
    35 H4'          6.2643    18.5692     4.6171 H            1 GTP303   0.0000
    36 H3'          6.7809    16.4756     3.0617 H            1 GTP303   0.0000
    37 H5           5.0186    17.2914     1.8167 H            1 GTP303   0.0000
    38 H2'          8.5228    17.3304     1.9207 H            1 GTP303   0.0000
    39 H7           6.9588    16.9118     0.2218 H            1 GTP303   0.0000
    40 H1'          7.3942    19.9825     1.9664 H            1 GTP303   0.0000
    41 H9          10.6336    18.2869     2.8225 H            1 GTP303   0.0000
    42 H10         11.2660    23.8951    -0.0488 H            1 GTP303   0.0000
    43 H11          7.7404    23.8963    -0.0218 H            1 GTP303   0.0000
    44 H12          9.1774    24.7405    -0.4935 H            1 GTP303   0.0000
@<TRIPOS>BOND
     1    1    2      ar
     2    1    3      ar
     3    1    4      ar
     4    1    5       1
     5    5    6       1
     6    6    7      ar
     7    6    8      ar
     8    6    9       1
     9    9   10       1
    10   10   11      ar
    11   10   12      ar
    12   10   13       1
    13   13   14       1
    14   14   15       1
    15   15   16       1
    16   15   17       1
    17   16   21       1
    18   17   18       1
    19   17   19       1
    20   19   20       1
    21   19   21       1
    22   21   22       1
    23   22   23       1
    24   22   32       1
    25   23   24       2
    26   24   25       1
    27   25   26       1
    28   25   32       2
    29   26   27       2
    30   26   28       1
    31   28   29       1
    32   29   30       1
    33   29   31       2
    34   31   32       1
    35   30   44       1
    36   30   43       1
    37   28   42       1
    38   23   41       1
    39   14   33       1
    40   14   34       1
    41   15   35       1
    42   17   36       1
    43   18   37       1
    44   19   38       1
    45   20   39       1
    46   21   40       1
@<TRIPOS>SUBSTRUCTURE
     1 GTP303      1 GROUP             4 A     GTP     0 **** GTP A 303
