@<TRIPOS>MOLECULE
3w8f_NAD_1_ligand
   70    74     1     0     0
SMALL
NO_CHARGES


@<TRIPOS>ATOM
     1 PA          -2.3060   -19.9550   -18.8270 P.3          1 NAD301   0.0000
     2 O1A         -1.2770   -19.7160   -19.7380 O.co2        1 NAD301   0.0000
     3 O2A         -2.6030   -21.2830   -18.2930 O.co2        1 NAD301  -1.0000
     4 O5B         -3.6940   -19.4670   -19.4050 O.3          1 NAD301   0.0000
     5 C5B         -3.7430   -18.2070   -20.2010 C.3          1 NAD301   0.0000
     6 C4B         -5.1210   -18.2860   -20.8840 C.3          1 NAD301   0.0000
     7 O4B         -5.1290   -17.0490   -21.6870 O.3          1 NAD301   0.0000
     8 C3B         -5.2310   -19.4180   -21.9150 C.3          1 NAD301   0.0000
     9 O3B         -6.6270   -19.7680   -21.9740 O.3          1 NAD301   0.0000
    10 C2B         -4.7460   -18.7560   -23.1820 C.3          1 NAD301   0.0000
    11 O2B         -5.2350   -19.4300   -24.3580 O.3          1 NAD301   0.0000
    12 C1B         -5.4000   -17.3980   -23.0540 C.3          1 NAD301   0.0000
    13 N9A         -4.8480   -16.4440   -23.8950 N.pl3        1 NAD301   0.0000
    14 C8A         -3.5030   -16.1340   -24.1470 C.2          1 NAD301   0.0000
    15 N7A         -3.3670   -15.1520   -25.0470 N.2          1 NAD301   0.0000
    16 C5A         -4.6600   -14.7480   -25.4010 C.ar         1 NAD301   0.0000
    17 C6A         -5.1510   -13.7830   -26.2910 C.ar         1 NAD301   0.0000
    18 N6A         -4.3090   -13.0000   -27.0420 N.pl3        1 NAD301   0.0000
    19 N1A         -6.4680   -13.6790   -26.3330 N.ar         1 NAD301   0.0000
    20 C2A         -7.3080   -14.4870   -25.6420 C.ar         1 NAD301   0.0000
    21 N3A         -6.8780   -15.4260   -24.7950 N.ar         1 NAD301   0.0000
    22 C4A         -5.5440   -15.5190   -24.6850 C.ar         1 NAD301   0.0000
    23 O3          -2.0290   -18.9440   -17.5910 O.3          1 NAD301   0.0000
    24 PN          -2.6390   -18.7020   -16.1680 P.3          1 NAD301   0.0000
    25 O1N         -1.5120   -18.9040   -15.2670 O.co2        1 NAD301   0.0000
    26 O2N         -3.8430   -19.4490   -15.9750 O.co2        1 NAD301  -1.0000
    27 O5D         -2.9560   -17.1620   -16.2740 O.3          1 NAD301   0.0000
    28 C5D         -4.2680   -16.5850   -16.1900 C.3          1 NAD301   0.0000
    29 C4D         -4.1440   -15.2270   -15.5530 C.3          1 NAD301   0.0000
    30 O4D         -3.6600   -15.4090   -14.1810 O.3          1 NAD301   0.0000
    31 C3D         -3.1620   -14.3370   -16.3010 C.3          1 NAD301   0.0000
    32 O3D         -3.6800   -12.9780   -16.2830 O.3          1 NAD301   0.0000
    33 C2D         -1.9660   -14.3440   -15.3520 C.3          1 NAD301   0.0000
    34 O2D         -1.2290   -13.1330   -15.4270 O.3          1 NAD301   0.0000
    35 C1D         -2.6520   -14.4220   -13.9980 C.3          1 NAD301   0.0000
    36 N1N         -1.8060   -14.9440   -12.9320 N.ar         1 NAD301   1.0000
    37 C2N         -1.1980   -16.1820   -12.9820 C.ar         1 NAD301   0.0000
    38 C3N         -0.4240   -16.6200   -11.9560 C.ar         1 NAD301   0.0000
    39 C7N          0.2490   -17.8930   -11.9200 C.2          1 NAD301   0.0000
    40 O7N          1.0960   -18.1100   -10.9900 O.2          1 NAD301   0.0000
    41 N7N         -0.0470   -18.7930   -12.8750 N.am         1 NAD301   0.0000
    42 C4N         -0.2450   -15.7730   -10.8170 C.ar         1 NAD301   0.0000
    43 C5N         -0.8710   -14.5220   -10.7720 C.ar         1 NAD301   0.0000
    44 C6N         -1.6810   -14.1110   -11.8120 C.ar         1 NAD301   0.0000
    45 H5B1        -3.0070   -18.1798   -20.8775 H            1 NAD301   0.0000
    46 H5B2        -3.6807   -17.4041   -19.6082 H            1 NAD301   0.0000
    47 H4B         -5.8687   -18.3081   -20.2203 H            1 NAD301   0.0000
    48 H3B         -4.6627   -20.2023   -21.6660 H            1 NAD301   0.0000
    49 H5          -6.7578   -20.5065   -22.6354 H            1 NAD301   0.0000
    50 H2B         -3.7490   -18.6800   -23.1942 H            1 NAD301   0.0000
    51 H7          -4.5862   -20.1413   -24.6286 H            1 NAD301   0.0000
    52 H1B         -6.3856   -17.4696   -23.2070 H            1 NAD301   0.0000
    53 H8A         -2.7333   -16.5943   -23.7046 H            1 NAD301   0.0000
    54 H6A1        -4.6865   -12.3189   -27.6694 H            1 NAD301   0.0000
    55 H6A2        -3.3184   -13.1109   -26.9614 H            1 NAD301   0.0000
    56 H2A         -8.2932   -14.3754   -25.7719 H            1 NAD301   0.0000
    57 H5D1        -4.8592   -17.1678   -15.6325 H            1 NAD301   0.0000
    58 H5D2        -4.6575   -16.4948   -17.1066 H            1 NAD301   0.0000
    59 H4D         -5.0417   -14.7868   -15.5326 H            1 NAD301   0.0000
    60 H3D         -2.9440   -14.6681   -17.2191 H            1 NAD301   0.0000
    61 H17         -4.5743   -12.9562   -16.7300 H            1 NAD301   0.0000
    62 H2D         -1.3795   -15.1384   -15.5101 H            1 NAD301   0.0000
    63 H19         -0.4559   -13.1735   -14.7940 H            1 NAD301   0.0000
    64 H1D         -3.0510   -13.5410   -13.7439 H            1 NAD301   0.0000
    65 H2N         -1.3292   -16.7641   -13.7845 H            1 NAD301   0.0000
    66 H7N1         0.4033   -19.6859   -12.8774 H            1 NAD301   0.0000
    67 H7N2        -0.7173   -18.5691   -13.5825 H            1 NAD301   0.0000
    68 H4N          0.3267   -16.0744   -10.0539 H            1 NAD301   0.0000
    69 H5N         -0.7311   -13.9233    -9.9833 H            1 NAD301   0.0000
    70 H6N         -2.1675   -13.2385   -11.7670 H            1 NAD301   0.0000
@<TRIPOS>BOND
     1    1    2      ar
     2    1    3      ar
     3    1    4       1
     4    1   23       1
     5    4    5       1
     6    5    6       1
     7    6    7       1
     8    6    8       1
     9    7   12       1
    10    8    9       1
    11    8   10       1
    12   10   11       1
    13   10   12       1
    14   12   13       1
    15   13   14       1
    16   13   22       1
    17   14   15       2
    18   15   16       1
    19   16   17      ar
    20   16   22      ar
    21   17   18       1
    22   17   19      ar
    23   19   20      ar
    24   20   21      ar
    25   21   22      ar
    26   23   24       1
    27   24   25      ar
    28   24   26      ar
    29   24   27       1
    30   27   28       1
    31   28   29       1
    32   29   30       1
    33   29   31       1
    34   30   35       1
    35   31   32       1
    36   31   33       1
    37   33   34       1
    38   33   35       1
    39   35   36       1
    40   36   37      ar
    41   36   44      ar
    42   37   38      ar
    43   38   39       1
    44   38   42      ar
    45   39   40       2
    46   39   41      am
    47   42   43      ar
    48   43   44      ar
    49   44   70       1
    50    5   45       1
    51    5   46       1
    52    6   47       1
    53    8   48       1
    54    9   49       1
    55   10   50       1
    56   11   51       1
    57   12   52       1
    58   14   53       1
    59   18   54       1
    60   18   55       1
    61   20   56       1
    62   43   69       1
    63   28   57       1
    64   28   58       1
    65   29   59       1
    66   31   60       1
    67   32   61       1
    68   33   62       1
    69   34   63       1
    70   35   64       1
    71   37   65       1
    72   41   66       1
    73   41   67       1
    74   42   68       1
@<TRIPOS>SUBSTRUCTURE
     1 NAD301      1 GROUP             4 A     NAD     0 **** NAD A 301
