@<TRIPOS>MOLECULE
1fvo_CP_2_ligand
   10     9     1     0     0
SMALL
NO_CHARGES


@<TRIPOS>ATOM
     1 N           49.2340   -63.6880    34.9780 N.am         1 CP355    0.0000
     2 C           49.2050   -63.1250    36.1910 C.2          1 CP355    0.0000
     3 O           48.2330   -63.2510    36.9410 O.2          1 CP355    0.0000
     4 O4P         50.3650   -62.3320    36.6270 O.3          1 CP355    0.0000
     5 P           50.2440   -61.8510    38.1720 P.3          1 CP355    0.0000
     6 O1P         50.1160   -63.0400    39.0620 O.co2        1 CP355    0.0000
     7 O2P         49.0510   -60.9720    38.3370 O.co2        1 CP355   -1.0000
     8 O3P         51.4720   -61.0860    38.5470 O.co2        1 CP355   -1.0000
     9 H1          50.0348   -63.5696    34.3908 H            1 CP355    0.0000
    10 H2          48.4549   -64.2273    34.6583 H            1 CP355    0.0000
@<TRIPOS>BOND
     1    1    2      am
     2    2    3       2
     3    2    4       1
     4    4    5       1
     5    5    6      ar
     6    5    7      ar
     7    5    8      ar
     8    1    9       1
     9    1   10       1
@<TRIPOS>SUBSTRUCTURE
     1 CP355       1 GROUP             4 B      CP     0 ****  CP B 355
