@<TRIPOS>MOLECULE
4zu4_4TG_1_ligand
   62    64     1     0     0
SMALL
NO_CHARGES


@<TRIPOS>ATOM
     1 C4          -3.7320   -26.6330   -40.8930 C.2          1 4TG401   0.0000
     2 C5          -3.8530   -25.2680   -40.6900 C.2          1 4TG401   0.0000
     3 O4          -4.2330   -27.4910   -39.9840 O.2          1 4TG401   0.0000
     4 C6          -3.3630   -24.4040   -41.6500 C.2          1 4TG401   0.0000
     5 N1          -2.8000   -24.9260   -42.7480 N.pl3        1 4TG401   0.0000
     6 N3          -3.1500   -27.1240   -42.0120 N.pl3        1 4TG401   0.0000
     7 O2B         -2.6070   -18.3270   -38.0910 O.co2        1 4TG401   0.0000
     8 PB          -3.6880   -18.2850   -39.1660 P.3          1 4TG401   0.0000
     9 O1B         -4.1830   -16.9640   -39.7320 O.co2        1 4TG401  -1.0000
    10 O3B         -4.9320   -19.1380   -38.5760 O.3          1 4TG401   0.0000
    11 C1Q         -4.6080   -20.3860   -37.9520 C.3          1 4TG401   0.0000
    12 O5Q         -4.5470   -20.1930   -36.5430 O.3          1 4TG401   0.0000
    13 C5Q         -5.7580   -19.6180   -36.0140 C.3          1 4TG401   0.0000
    14 C6Q         -5.5910   -19.5730   -34.5040 C.3          1 4TG401   0.0000
    15 C4Q         -6.9420   -20.5190   -36.3320 C.3          1 4TG401   0.0000
    16 N4Q         -8.1840   -19.9240   -35.8090 N.am         1 4TG401   0.0000
    17 C           -8.6960   -18.7330   -36.1280 C.2          1 4TG401   0.0000
    18 O           -8.2150   -17.9480   -36.9140 O.2          1 4TG401   0.0000
    19 C3Q         -7.0200   -20.9780   -37.7920 C.3          1 4TG401   0.0000
    20 O3Q         -7.8820   -22.1090   -37.9570 O.3          1 4TG401   0.0000
    21 C2Q         -5.6670   -21.4180   -38.3420 C.3          1 4TG401   0.0000
    22 O2Q         -5.7130   -21.5920   -39.7770 O.3          1 4TG401   0.0000
    23 O3A         -3.1060   -19.1930   -40.3550 O.3          1 4TG401   0.0000
    24 PA          -3.8180   -19.4850   -41.7830 P.3          1 4TG401   0.0000
    25 O2A         -3.4940   -18.3360   -42.7040 O.co2        1 4TG401   0.0000
    26 O1A         -5.2660   -19.8780   -41.5480 O.co2        1 4TG401  -1.0000
    27 O5'         -3.1030   -20.8440   -42.2370 O.3          1 4TG401   0.0000
    28 C5'         -1.7160   -20.7260   -42.5830 C.3          1 4TG401   0.0000
    29 C4'         -1.3940   -21.8150   -43.5840 C.3          1 4TG401   0.0000
    30 O4'         -1.4330   -23.1060   -42.9580 O.3          1 4TG401   0.0000
    31 C1'         -2.2510   -23.9870   -43.7200 C.3          1 4TG401   0.0000
    32 C2'         -3.2660   -23.0790   -44.4200 C.3          1 4TG401   0.0000
    33 C3'         -2.4300   -21.8380   -44.6930 C.3          1 4TG401   0.0000
    34 O3'         -1.7170   -21.9850   -45.9270 O.3          1 4TG401   0.0000
    35 C2          -2.6670   -26.2550   -42.9170 C.2          1 4TG401   0.0000
    36 O2          -2.0940   -26.7500   -44.0420 O.2          1 4TG401   0.0000
    37 C5M         -4.5300   -24.7170   -39.4650 C.3          1 4TG401   0.0000
    38 H1          -3.4269   -23.4135   -41.5284 H            1 4TG401   0.0000
    39 H2          -3.0809   -28.1102   -42.1621 H            1 4TG401   0.0000
    40 H1Q         -3.7146   -20.6937   -38.2794 H            1 4TG401   0.0000
    41 H5Q         -5.9035   -18.6994   -36.3815 H            1 4TG401   0.0000
    42 H6Q1        -6.4114   -19.1791   -34.0895 H            1 4TG401   0.0000
    43 H6Q2        -5.4542   -20.5004   -34.1560 H            1 4TG401   0.0000
    44 H6Q3        -4.7976   -19.0099   -34.2730 H            1 4TG401   0.0000
    45 H4Q         -6.7971   -21.3511   -35.7967 H            1 4TG401   0.0000
    46 H9          -8.6971   -20.4690   -35.1459 H            1 4TG401   0.0000
    47 H10         -9.5493   -18.4668   -35.6796 H            1 4TG401   0.0000
    48 H3Q         -7.3660   -20.2237   -38.3500 H            1 4TG401   0.0000
    49 H12         -8.8138   -21.7943   -38.1381 H            1 4TG401   0.0000
    50 H2Q         -5.4249   -22.2937   -37.9243 H            1 4TG401   0.0000
    51 H14         -5.4507   -20.7373   -40.2250 H            1 4TG401   0.0000
    52 H5'1        -1.1509   -20.8375   -41.7656 H            1 4TG401   0.0000
    53 H5'2        -1.5418   -19.8288   -42.9888 H            1 4TG401   0.0000
    54 H4'         -0.4868   -21.6568   -43.9737 H            1 4TG401   0.0000
    55 H1'         -1.6982   -24.4735   -44.3965 H            1 4TG401   0.0000
    56 H2'1        -4.0422   -22.8722   -43.8243 H            1 4TG401   0.0000
    57 H2'2        -3.5978   -23.4895   -45.2694 H            1 4TG401   0.0000
    58 H3'         -2.9903   -21.0097   -44.6892 H            1 4TG401   0.0000
    59 H22         -2.3666   -22.0047   -46.6870 H            1 4TG401   0.0000
    60 H5M1        -4.5184   -23.7176   -39.4988 H            1 4TG401   0.0000
    61 H5M2        -5.4764   -25.0385   -39.4341 H            1 4TG401   0.0000
    62 H5M3        -4.0453   -25.0286   -38.6477 H            1 4TG401   0.0000
@<TRIPOS>BOND
     1    1    2       1
     2    1    3       2
     3    1    6       1
     4    2    4       2
     5    2   37       1
     6    4    5       1
     7    5   31       1
     8    5   35       1
     9    6   35       1
    10    7    8      ar
    11    8    9      ar
    12    8   10       1
    13    8   23       1
    14   10   11       1
    15   11   12       1
    16   11   21       1
    17   12   13       1
    18   13   14       1
    19   13   15       1
    20   15   16       1
    21   15   19       1
    22   16   17      am
    23   17   18       2
    24   19   20       1
    25   19   21       1
    26   21   22       1
    27   23   24       1
    28   24   25      ar
    29   24   26      ar
    30   24   27       1
    31   27   28       1
    32   28   29       1
    33   29   30       1
    34   29   33       1
    35   30   31       1
    36   31   32       1
    37   32   33       1
    38   33   34       1
    39   35   36       2
    40    4   38       1
    41    6   39       1
    42   37   62       1
    43   11   40       1
    44   13   41       1
    45   14   42       1
    46   14   43       1
    47   14   44       1
    48   15   45       1
    49   16   46       1
    50   17   47       1
    51   19   48       1
    52   20   49       1
    53   21   50       1
    54   22   51       1
    55   37   61       1
    56   28   52       1
    57   28   53       1
    58   29   54       1
    59   31   55       1
    60   32   56       1
    61   32   57       1
    62   33   58       1
    63   34   59       1
    64   37   60       1
@<TRIPOS>SUBSTRUCTURE
     1 4TG401      1 GROUP             4 A     4TG     0 **** 4TG A 401
