@<TRIPOS>MOLECULE
3ewk_FAD_1_ligand
   82    87     1     0     0
SMALL
NO_CHARGES


@<TRIPOS>ATOM
     1 PA          23.0030   -45.7390   -19.3730 P.3          1 FAD326   0.0000
     2 O1A         22.3820   -45.4960   -20.8440 O.co2        1 FAD326   0.0000
     3 O2A         22.4300   -44.7500   -18.4770 O.co2        1 FAD326  -1.0000
     4 O5B         24.5710   -45.2730   -19.0780 O.3          1 FAD326   0.0000
     5 C5B         25.1280   -43.9420   -19.4910 C.3          1 FAD326   0.0000
     6 C4B         25.7870   -42.8350   -18.5380 C.3          1 FAD326   0.0000
     7 O4B         27.3100   -42.8990   -18.1530 O.3          1 FAD326   0.0000
     8 C3B         25.1000   -43.0120   -17.3290 C.3          1 FAD326   0.0000
     9 O3B         23.7610   -43.5010   -17.4660 O.3          1 FAD326   0.0000
    10 C2B         26.0700   -43.7300   -16.4590 C.3          1 FAD326   0.0000
    11 O2B         25.7670   -45.0710   -16.5970 O.3          1 FAD326   0.0000
    12 C1B         27.4560   -43.7560   -16.9540 C.3          1 FAD326   0.0000
    13 N9A         28.5040   -44.7760   -16.5800 N.pl3        1 FAD326   0.0000
    14 C8A         29.8920   -44.7700   -16.0410 C.2          1 FAD326   0.0000
    15 N7A         30.4170   -46.1110   -15.9270 N.2          1 FAD326   0.0000
    16 C5A         29.3300   -46.9010   -16.4620 C.ar         1 FAD326   0.0000
    17 C6A         29.2110   -48.3460   -16.6770 C.ar         1 FAD326   0.0000
    18 N6A         30.3450   -49.1950   -16.3180 N.pl3        1 FAD326   0.0000
    19 N1A         28.0180   -48.8450   -17.1360 N.ar         1 FAD326   0.0000
    20 C2A         26.8510   -48.0270   -17.5170 C.ar         1 FAD326   0.0000
    21 N3A         27.0450   -46.5790   -17.3340 N.ar         1 FAD326   0.0000
    22 C4A         28.2220   -46.1250   -16.8230 C.ar         1 FAD326   0.0000
    23 N1          20.3290   -51.5780   -13.3470 N.2          1 FAD326   0.0000
    24 C2          19.0040   -51.7340   -13.2220 C.2          1 FAD326   0.0000
    25 O2          18.1800   -51.0080   -14.0560 O.2          1 FAD326   0.0000
    26 N3          18.5170   -52.6590   -12.2620 N.pl3        1 FAD326   0.0000
    27 C4          19.3760   -53.3450   -11.4440 C.2          1 FAD326   0.0000
    28 O4          18.9140   -54.2090   -10.4510 O.2          1 FAD326   0.0000
    29 C4X         20.7550   -53.1940   -11.6060 C.2          1 FAD326   0.0000
    30 N5          21.6370   -53.9620   -10.6930 N.2          1 FAD326   0.0000
    31 C5X         23.0310   -53.8000   -10.8380 C.ar         1 FAD326   0.0000
    32 C6          23.9100   -54.6390    -9.9990 C.ar         1 FAD326   0.0000
    33 C7          25.3240   -54.4900   -10.1110 C.ar         1 FAD326   0.0000
    34 C7M         26.1970   -55.3180    -9.1850 C.3          1 FAD326   0.0000
    35 C8          25.8710   -53.5390   -11.1230 C.ar         1 FAD326   0.0000
    36 C8M         27.3520   -53.3070   -11.3720 C.3          1 FAD326   0.0000
    37 C9          25.0050   -52.7890   -11.9590 C.ar         1 FAD326   0.0000
    38 C9A         23.5400   -52.9110   -11.8270 C.ar         1 FAD326   0.0000
    39 N10         22.6470   -52.1280   -12.7410 N.pl3        1 FAD326   0.0000
    40 C10         21.2270   -52.3330   -12.5650 C.2          1 FAD326   0.0000
    41 C1'         23.3310   -51.2660   -13.7420 C.3          1 FAD326   0.0000
    42 C2'         23.1610   -51.0040   -15.3230 C.2          1 FAD326   0.0000
    43 O2'         23.8960   -50.3160   -15.9750 O.2          1 FAD326   0.0000
    44 C3'         21.9520   -51.3580   -16.1020 C.3          1 FAD326   0.0000
    45 O3'         22.0650   -50.9600   -17.4930 O.3          1 FAD326   0.0000
    46 C4'         21.0370   -50.2100   -15.8190 C.3          1 FAD326   0.0000
    47 O4'         19.8140   -50.8260   -15.9250 O.3          1 FAD326   0.0000
    48 C5'         21.4690   -49.1540   -16.8800 C.3          1 FAD326   0.0000
    49 O5'         20.3850   -48.5320   -17.5290 O.3          1 FAD326   0.0000
    50 P           20.6860   -47.3500   -18.6510 P.3          1 FAD326   0.0000
    51 O1P         20.3560   -48.2090   -20.0270 O.co2        1 FAD326   0.0000
    52 O2P         19.6820   -46.3360   -18.3570 O.co2        1 FAD326  -1.0000
    53 O3P         22.2900   -46.9940   -18.6320 O.3          1 FAD326   0.0000
    54 H5B1        24.3686   -43.4739   -19.9429 H            1 FAD326   0.0000
    55 H5B2        25.8355   -44.1565   -20.1644 H            1 FAD326   0.0000
    56 H4B         25.5800   -41.9266   -18.9011 H            1 FAD326   0.0000
    57 H3B         25.0121   -42.0974   -16.9344 H            1 FAD326   0.0000
    58 H5          23.2016   -43.1568   -16.7119 H            1 FAD326   0.0000
    59 H2B         26.0163   -43.4284   -15.5071 H            1 FAD326   0.0000
    60 H7          25.3931   -45.2360   -17.5097 H            1 FAD326   0.0000
    61 H1B         27.7948   -43.0337   -16.3511 H            1 FAD326   0.0000
    62 H8A         30.3961   -43.9436   -15.7901 H            1 FAD326   0.0000
    63 H6A1        30.2917   -50.1843   -16.4538 H            1 FAD326   0.0000
    64 H6A2        31.1743   -48.7867   -15.9365 H            1 FAD326   0.0000
    65 H2A         26.0022   -48.4215   -17.8689 H            1 FAD326   0.0000
    66 H13         17.5321   -52.8124   -12.1814 H            1 FAD326   0.0000
    67 H14         23.5192   -55.3025    -9.3610 H            1 FAD326   0.0000
    68 H7M1        27.1597   -55.1183    -9.3675 H            1 FAD326   0.0000
    69 H7M2        25.9839   -55.0911    -8.2347 H            1 FAD326   0.0000
    70 H7M3        26.0224   -56.2899    -9.3429 H            1 FAD326   0.0000
    71 H8M1        27.4657   -52.6264   -12.0958 H            1 FAD326   0.0000
    72 H8M2        27.7833   -52.9762   -10.5326 H            1 FAD326   0.0000
    73 H8M3        27.7816   -54.1657   -11.6514 H            1 FAD326   0.0000
    74 H21         25.3907   -52.1715   -12.6446 H            1 FAD326   0.0000
    75 H1'1        24.2857   -51.5540   -13.6667 H            1 FAD326   0.0000
    76 H1'2        23.2274   -50.3504   -13.3534 H            1 FAD326   0.0000
    77 H3'         21.5755   -52.2695   -15.9363 H            1 FAD326   0.0000
    78 H25         22.8497   -51.4199   -17.9086 H            1 FAD326   0.0000
    79 H4'         21.1802   -49.8618   -14.8926 H            1 FAD326   0.0000
    80 H27         19.7527   -51.5632   -15.2521 H            1 FAD326   0.0000
    81 H5'1        22.0310   -49.6104   -17.5698 H            1 FAD326   0.0000
    82 H5'2        22.0104   -48.4488   -16.4222 H            1 FAD326   0.0000
@<TRIPOS>BOND
     1    1    2      ar
     2    1    3      ar
     3    1    4       1
     4    1   53       1
     5    4    5       1
     6    5    6       1
     7    6    7       1
     8    6    8       1
     9    7   12       1
    10    8    9       1
    11    8   10       1
    12   10   11       1
    13   10   12       1
    14   12   13       1
    15   13   14       1
    16   13   22       1
    17   14   15       2
    18   15   16       1
    19   16   17      ar
    20   16   22      ar
    21   17   18       1
    22   17   19      ar
    23   19   20      ar
    24   20   21      ar
    25   21   22      ar
    26   23   24       1
    27   23   40       2
    28   24   25       2
    29   24   26       1
    30   26   27       1
    31   27   28       2
    32   27   29       1
    33   29   30       2
    34   29   40       1
    35   30   31       1
    36   31   32      ar
    37   31   38      ar
    38   32   33      ar
    39   33   34       1
    40   33   35      ar
    41   35   36       1
    42   35   37      ar
    43   37   38      ar
    44   38   39       1
    45   39   40       1
    46   39   41       1
    47   41   42       1
    48   42   43       2
    49   42   44       1
    50   44   45       1
    51   44   46       1
    52   46   47       1
    53   46   48       1
    54   48   49       1
    55   49   50       1
    56   50   51      ar
    57   50   52      ar
    58   50   53       1
    59   48   82       1
    60    5   54       1
    61    5   55       1
    62    6   56       1
    63    8   57       1
    64    9   58       1
    65   10   59       1
    66   11   60       1
    67   12   61       1
    68   14   62       1
    69   18   63       1
    70   18   64       1
    71   20   65       1
    72   26   66       1
    73   32   67       1
    74   34   68       1
    75   34   69       1
    76   34   70       1
    77   36   71       1
    78   36   72       1
    79   36   73       1
    80   37   74       1
    81   41   75       1
    82   41   76       1
    83   44   77       1
    84   45   78       1
    85   46   79       1
    86   47   80       1
    87   48   81       1
@<TRIPOS>SUBSTRUCTURE
     1 FAD326      1 GROUP             4 A     FAD     0 **** FAD A 326
