@<TRIPOS>MOLECULE
4gtt_7TQ_1_ligand
   85    90     1     0     0
SMALL
NO_CHARGES


@<TRIPOS>ATOM
     1 CAA          1.0940    18.4320    32.2560 C.3          1 7TQ403   0.0000
     2 OBG          2.4220    17.9240    32.4580 O.3          1 7TQ403   0.0000
     3 CBM          3.3640    18.5170    31.6620 C.ar         1 7TQ403   0.0000
     4 CAS          3.4210    19.9070    31.5250 C.ar         1 7TQ403   0.0000
     5 CAU          4.3910    20.4940    30.7150 C.ar         1 7TQ403   0.0000
     6 CAR          4.2940    17.7250    30.9870 C.ar         1 7TQ403   0.0000
     7 CAT          5.2690    18.3130    30.1780 C.ar         1 7TQ403   0.0000
     8 CBP          5.3170    19.7020    30.0320 C.ar         1 7TQ403   0.0000
     9 SBW          6.5730    20.4770    28.9810 S.o2         1 7TQ403   0.0000
    10 OAE          7.6480    19.4480    28.6140 O.2          1 7TQ403   0.0000
    11 OAF          7.2250    21.6310    29.7510 O.2          1 7TQ403   0.0000
    12 NBU          5.8030    21.2360    27.3240 N.3          1 7TQ403   0.0000
    13 CBB          4.6450    22.0950    27.6430 C.3          1 7TQ403   0.0000
    14 CBO          3.4450    21.4260    27.8430 C.ar         1 7TQ403   0.0000
    15 CAY          2.5410    22.3650    28.3420 C.ar         1 7TQ403   0.0000
    16 CBJ          1.2430    22.0140    28.6560 C.ar         1 7TQ403   0.0000
    17 CAG          0.3400    23.0130    29.1730 C.1          1 7TQ403   0.0000
    18 NAC         -0.3820    23.8260    29.5850 N.1          1 7TQ403   0.0000
    19 CAM          0.8470    20.6990    28.4610 C.ar         1 7TQ403   0.0000
    20 CAV          1.7440    19.7530    27.9590 C.ar         1 7TQ403   0.0000
    21 CBR          3.0740    20.0870    27.6220 C.ar         1 7TQ403   0.0000
    22 NBT          3.8450    19.0390    27.1720 N.pl3        1 7TQ403   0.0000
    23 CBC          3.4930    17.6660    27.5710 C.3          1 7TQ403   0.0000
    24 CBQ          2.7950    16.9520    26.3970 C.2          1 7TQ403   0.0000
    25 CAW          2.1130    17.5480    25.4240 C.2          1 7TQ403   0.0000
    26 NBE          1.6730    16.5810    24.6200 N.2          1 7TQ403   0.0000
    27 CAX          2.0830    15.4050    25.0970 C.2          1 7TQ403   0.0000
    28 NBV          2.7840    15.6330    26.2070 N.pl3        1 7TQ403   0.0000
    29 CAB          3.4190    14.5860    27.0520 C.3          1 7TQ403   0.0000
    30 CBD          5.1010    19.0060    26.4200 C.3          1 7TQ403   0.0000
    31 CBS          5.6710    20.3870    26.0950 C.3          1 7TQ403   0.0000
    32 CBA          4.8610    20.9470    24.9310 C.3          1 7TQ403   0.0000
    33 CBL          5.4680    22.0840    24.3410 C.ar         1 7TQ403   0.0000
    34 CAO          5.1190    22.3740    23.0150 C.ar         1 7TQ403   0.0000
    35 CAQ          5.6700    23.4600    22.3410 C.ar         1 7TQ403   0.0000
    36 CAN          6.4050    22.9100    24.9810 C.ar         1 7TQ403   0.0000
    37 CAP          6.9530    23.9920    24.3100 C.ar         1 7TQ403   0.0000
    38 CBN          6.6010    24.2710    22.9950 C.ar         1 7TQ403   0.0000
    39 OBH          7.1980    25.3550    22.4210 O.3          1 7TQ403   0.0000
    40 CBI          7.5360    25.3550    21.1000 C.2          1 7TQ403   0.0000
    41 OAD          7.7470    24.3180    20.4690 O.2          1 7TQ403   0.0000
    42 NBF          7.6430    26.5460    20.5200 N.am         1 7TQ403   0.0000
    43 CAZ          7.9700    26.7630    19.1280 C.3          1 7TQ403   0.0000
    44 CBK          6.8420    27.4000    18.5770 C.ar         1 7TQ403   0.0000
    45 CAK          6.4150    27.0670    17.3030 C.ar         1 7TQ403   0.0000
    46 CAI          5.3110    27.7060    16.7520 C.ar         1 7TQ403   0.0000
    47 CAH          4.6050    28.6820    17.4530 C.ar         1 7TQ403   0.0000
    48 CAJ          5.0170    29.0150    18.7270 C.ar         1 7TQ403   0.0000
    49 CAL          6.1260    28.3790    19.2730 C.ar         1 7TQ403   0.0000
    50 HAA1         0.4593    17.9577    32.8660 H            1 7TQ403   0.0000
    51 HAA2         1.0781    19.4119    32.4550 H            1 7TQ403   0.0000
    52 HAA3         0.8199    18.2802    31.3064 H            1 7TQ403   0.0000
    53 HAS          2.7628    20.4825    32.0104 H            1 7TQ403   0.0000
    54 HAU          4.4245    21.4891    30.6220 H            1 7TQ403   0.0000
    55 HAR          4.2621    16.7301    31.0832 H            1 7TQ403   0.0000
    56 HAT          5.9347    17.7384    29.7019 H            1 7TQ403   0.0000
    57 HBB1         4.5185    22.7361    26.8860 H            1 7TQ403   0.0000
    58 HBB2         4.8581    22.6028    28.4777 H            1 7TQ403   0.0000
    59 HAY          2.8391    23.3103    28.4747 H            1 7TQ403   0.0000
    60 HAM         -0.0892    20.4256    28.6818 H            1 7TQ403   0.0000
    61 HAV          1.4347    18.8102    27.8345 H            1 7TQ403   0.0000
    62 HBC1         2.8760    17.6954    28.3574 H            1 7TQ403   0.0000
    63 HBC2         4.3239    17.1673    27.8177 H            1 7TQ403   0.0000
    64 HAW          1.9601    18.5304    25.3165 H            1 7TQ403   0.0000
    65 HAX          1.8970    14.5095    24.6927 H            1 7TQ403   0.0000
    66 HAB1         3.2400    13.6849    26.6569 H            1 7TQ403   0.0000
    67 HAB2         4.4059    14.7426    27.0914 H            1 7TQ403   0.0000
    68 HAB3         3.0379    14.6267    27.9757 H            1 7TQ403   0.0000
    69 HBD1         4.9392    18.5227    25.5596 H            1 7TQ403   0.0000
    70 HBD2         5.7777    18.5064    26.9608 H            1 7TQ403   0.0000
    71 HBS          6.5981    20.2384    25.7510 H            1 7TQ403   0.0000
    72 HBA1         3.9551    21.2055    25.2664 H            1 7TQ403   0.0000
    73 HBA2         4.7681    20.2358    24.2341 H            1 7TQ403   0.0000
    74 HAO          4.4601    21.7882    22.5431 H            1 7TQ403   0.0000
    75 HAQ          5.4022    23.6578    21.3981 H            1 7TQ403   0.0000
    76 HAN          6.6780    22.7174    25.9235 H            1 7TQ403   0.0000
    77 HAP          7.6114    24.5805    24.7792 H            1 7TQ403   0.0000
    78 HBF          7.4855    27.3531    21.0891 H            1 7TQ403   0.0000
    79 HAZ1         8.1398    25.8915    18.6680 H            1 7TQ403   0.0000
    80 HAZ2         8.7776    27.3468    19.0447 H            1 7TQ403   0.0000
    81 HAK          6.9008    26.3670    16.7795 H            1 7TQ403   0.0000
    82 HAI          5.0155    27.4593    15.8290 H            1 7TQ403   0.0000
    83 HAH          3.8138    29.1330    17.0399 H            1 7TQ403   0.0000
    84 HAJ          4.5225    29.7073    19.2526 H            1 7TQ403   0.0000
    85 HAL          6.4218    28.6301    20.1947 H            1 7TQ403   0.0000
@<TRIPOS>BOND
     1    1    2       1
     2    2    3       1
     3    3    4      ar
     4    3    6      ar
     5    4    5      ar
     6    5    8      ar
     7    6    7      ar
     8    7    8      ar
     9    8    9       1
    10    9   10       2
    11    9   11       2
    12    9   12       1
    13   12   13       1
    14   12   31       1
    15   13   14       1
    16   14   15      ar
    17   14   21      ar
    18   15   16      ar
    19   16   17       1
    20   16   19      ar
    21   17   18       3
    22   19   20      ar
    23   20   21      ar
    24   21   22       1
    25   22   23       1
    26   22   30       1
    27   23   24       1
    28   24   25       2
    29   24   28       1
    30   25   26       1
    31   26   27       2
    32   27   28       1
    33   28   29       1
    34   30   31       1
    35   31   32       1
    36   32   33       1
    37   33   34      ar
    38   33   36      ar
    39   34   35      ar
    40   35   38      ar
    41   36   37      ar
    42   37   38      ar
    43   38   39       1
    44   39   40       1
    45   40   41       2
    46   40   42      am
    47   42   43       1
    48   43   44       1
    49   44   45      ar
    50   44   49      ar
    51   45   46      ar
    52   46   47      ar
    53   47   48      ar
    54   48   49      ar
    55    1   50       1
    56    1   51       1
    57    1   52       1
    58    4   53       1
    59    5   54       1
    60    6   55       1
    61    7   56       1
    62   13   57       1
    63   13   58       1
    64   15   59       1
    65   19   60       1
    66   20   61       1
    67   23   62       1
    68   23   63       1
    69   25   64       1
    70   27   65       1
    71   29   66       1
    72   29   67       1
    73   29   68       1
    74   30   69       1
    75   30   70       1
    76   31   71       1
    77   32   72       1
    78   32   73       1
    79   34   74       1
    80   35   75       1
    81   36   76       1
    82   37   77       1
    83   42   78       1
    84   43   79       1
    85   43   80       1
    86   45   81       1
    87   46   82       1
    88   47   83       1
    89   48   84       1
    90   49   85       1
@<TRIPOS>SUBSTRUCTURE
     1 7TQ403      1 GROUP             4 B     7TQ     0 **** 7TQ B 403
