@<TRIPOS>MOLECULE
3uic_NAD_17_ligand
   70    74     1     0     0
SMALL
NO_CHARGES


@<TRIPOS>ATOM
     1 PA          45.8470     7.1160    16.4080 P.3          1 NAD261   0.0000
     2 O1A         45.8900     8.3870    17.1800 O.co2        1 NAD261   0.0000
     3 O2A         46.9410     6.1380    16.7020 O.co2        1 NAD261  -1.0000
     4 O5B         45.8570     7.3770    14.8300 O.3          1 NAD261   0.0000
     5 C5B         45.6900     8.7780    14.5020 C.3          1 NAD261   0.0000
     6 C4B         46.6800     8.9970    13.3390 C.3          1 NAD261   0.0000
     7 O4B         46.2250    10.1480    12.5990 O.3          1 NAD261   0.0000
     8 C3B         48.1540     9.1920    13.7400 C.3          1 NAD261   0.0000
     9 O3B         49.0870     8.2460    13.2040 O.3          1 NAD261   0.0000
    10 C2B         48.4450    10.6050    13.2880 C.3          1 NAD261   0.0000
    11 O2B         49.8700    10.6190    12.9960 O.3          1 NAD261   0.0000
    12 C1B         47.4020    10.7850    12.1820 C.3          1 NAD261   0.0000
    13 N9A         47.0820    12.1930    11.7800 N.pl3        1 NAD261   0.0000
    14 C8A         46.3080    13.1650    12.3490 C.2          1 NAD261   0.0000
    15 N7A         46.3120    14.2840    11.6390 N.2          1 NAD261   0.0000
    16 C5A         47.1310    13.9340    10.5870 C.ar         1 NAD261   0.0000
    17 C6A         47.5640    14.6950     9.4310 C.ar         1 NAD261   0.0000
    18 N6A         47.1690    15.9040     9.2720 N.pl3        1 NAD261   0.0000
    19 N1A         48.4170    14.1330     8.4770 N.ar         1 NAD261   0.0000
    20 C2A         48.8600    12.8310     8.6130 C.ar         1 NAD261   0.0000
    21 N3A         48.4640    12.0940     9.6930 N.ar         1 NAD261   0.0000
    22 C4A         47.6150    12.6300    10.6740 C.ar         1 NAD261   0.0000
    23 O3          44.2980     6.6610    16.5170 O.3          1 NAD261   0.0000
    24 PN          43.6450     5.3950    15.8840 P.3          1 NAD261   0.0000
    25 O1N         42.3850     4.9340    16.4490 O.co2        1 NAD261   0.0000
    26 O2N         44.7660     4.4160    15.6800 O.co2        1 NAD261  -1.0000
    27 O5D         43.1300     5.8970    14.4760 O.3          1 NAD261   0.0000
    28 C5D         43.6200     5.5330    13.2210 C.3          1 NAD261   0.0000
    29 C4D         42.3240     5.5850    12.4430 C.3          1 NAD261   0.0000
    30 O4D         41.4290     4.5380    12.8750 O.3          1 NAD261   0.0000
    31 C3D         41.4070     6.7870    12.4330 C.3          1 NAD261   0.0000
    32 O3D         40.7900     6.7700    11.1280 O.3          1 NAD261   0.0000
    33 C2D         40.2680     6.4550    13.2990 C.3          1 NAD261   0.0000
    34 O2D         39.0730     7.1950    12.9670 O.3          1 NAD261   0.0000
    35 C1D         40.0430     5.0250    12.9270 C.3          1 NAD261   0.0000
    36 N1N         39.0810     4.4520    13.9110 N.ar         1 NAD261   1.0000
    37 C2N         39.5460     4.4160    15.3050 C.ar         1 NAD261   0.0000
    38 C3N         38.6550     3.8990    16.2650 C.ar         1 NAD261   0.0000
    39 C7N         39.1230     3.9460    17.7190 C.2          1 NAD261   0.0000
    40 O7N         38.2430     3.6280    18.5180 O.2          1 NAD261   0.0000
    41 N7N         40.3710     4.2960    18.0370 N.am         1 NAD261   0.0000
    42 C4N         37.3530     3.4310    15.8940 C.ar         1 NAD261   0.0000
    43 C5N         36.9240     3.4660    14.5590 C.ar         1 NAD261   0.0000
    44 C6N         37.7630     3.9760    13.5760 C.ar         1 NAD261   0.0000
    45 H5B1        45.9222     9.3579    15.2829 H            1 NAD261   0.0000
    46 H5B2        44.7517     8.9679    14.2131 H            1 NAD261   0.0000
    47 H4B         46.6273     8.2016    12.7352 H            1 NAD261   0.0000
    48 H3B         48.2147     9.1625    14.7377 H            1 NAD261   0.0000
    49 H5          49.7692     8.7263    12.6527 H            1 NAD261   0.0000
    50 H2B         48.2515    11.2406    14.0354 H            1 NAD261   0.0000
    51 H7          50.0112    10.8621    12.0363 H            1 NAD261   0.0000
    52 H1B         47.7350    10.3058    11.3699 H            1 NAD261   0.0000
    53 H8A         45.7984    13.0459    13.2011 H            1 NAD261   0.0000
    54 H6A1        47.4687    16.4271     8.4742 H            1 NAD261   0.0000
    55 H6A2        46.5611    16.3241     9.9458 H            1 NAD261   0.0000
    56 H2A         49.4663    12.4311     7.9256 H            1 NAD261   0.0000
    57 H5D1        44.0194     4.6162    13.2250 H            1 NAD261   0.0000
    58 H5D2        44.2922     6.1879    12.8756 H            1 NAD261   0.0000
    59 H4D         42.5536     5.3911    11.4892 H            1 NAD261   0.0000
    60 H3D         41.8586     7.6493    12.6619 H            1 NAD261   0.0000
    61 H17         41.4971     6.8376    10.4241 H            1 NAD261   0.0000
    62 H2D         40.5022     6.5504    14.2665 H            1 NAD261   0.0000
    63 H19         38.7873     7.7384    13.7564 H            1 NAD261   0.0000
    64 H1D         39.6435     4.9813    12.0113 H            1 NAD261   0.0000
    65 H2N         40.4554     4.7443    15.5604 H            1 NAD261   0.0000
    66 H7N1        40.6548     4.3196    18.9956 H            1 NAD261   0.0000
    67 H7N2        41.0223     4.5346    17.3167 H            1 NAD261   0.0000
    68 H4N         36.7398     3.0734    16.5984 H            1 NAD261   0.0000
    69 H5N         36.0162     3.1246    14.3153 H            1 NAD261   0.0000
    70 H6N         37.4492     4.0130    12.6272 H            1 NAD261   0.0000
@<TRIPOS>BOND
     1    1    2      ar
     2    1    3      ar
     3    1    4       1
     4    1   23       1
     5    4    5       1
     6    5    6       1
     7    6    7       1
     8    6    8       1
     9    7   12       1
    10    8    9       1
    11    8   10       1
    12   10   11       1
    13   10   12       1
    14   12   13       1
    15   13   14       1
    16   13   22       1
    17   14   15       2
    18   15   16       1
    19   16   17      ar
    20   16   22      ar
    21   17   18       1
    22   17   19      ar
    23   19   20      ar
    24   20   21      ar
    25   21   22      ar
    26   23   24       1
    27   24   25      ar
    28   24   26      ar
    29   24   27       1
    30   27   28       1
    31   28   29       1
    32   29   30       1
    33   29   31       1
    34   30   35       1
    35   31   32       1
    36   31   33       1
    37   33   34       1
    38   33   35       1
    39   35   36       1
    40   36   37      ar
    41   36   44      ar
    42   37   38      ar
    43   38   39       1
    44   38   42      ar
    45   39   40       2
    46   39   41      am
    47   42   43      ar
    48   43   44      ar
    49   44   70       1
    50    5   45       1
    51    5   46       1
    52    6   47       1
    53    8   48       1
    54    9   49       1
    55   10   50       1
    56   11   51       1
    57   12   52       1
    58   14   53       1
    59   18   54       1
    60   18   55       1
    61   20   56       1
    62   43   69       1
    63   28   57       1
    64   28   58       1
    65   29   59       1
    66   31   60       1
    67   32   61       1
    68   33   62       1
    69   34   63       1
    70   35   64       1
    71   37   65       1
    72   41   66       1
    73   41   67       1
    74   42   68       1
@<TRIPOS>SUBSTRUCTURE
     1 NAD261      1 GROUP             4 A     NAD     0 **** NAD A 261
