@<TRIPOS>MOLECULE
3pii_BMD_3_ligand
   15    14     1     0     0
SMALL
NO_CHARGES


@<TRIPOS>ATOM
     1 C3         -32.4220   -44.0480    19.5370 C.3          1 BMD700   0.0000
     2 C2         -33.9070   -43.8230    19.3680 C.3          1 BMD700   0.0000
     3 C1         -34.1190   -42.6560    18.4050 C.3          1 BMD700   0.0000
     4 CA         -35.5500   -42.1370    18.3810 C.2          1 BMD700   0.0000
     5 OA         -36.2680   -42.1440    19.3820 O.2          1 BMD700   0.0000
     6 NA         -35.9630   -41.6620    17.1980 N.am         1 BMD700   0.0000
     7 H1         -32.2698   -44.8104    20.1660 H            1 BMD700   0.0000
     8 H2         -32.0141   -44.2617    18.6493 H            1 BMD700   0.0000
     9 H3         -31.9996   -43.2208    19.9075 H            1 BMD700   0.0000
    10 H4         -34.3176   -43.6071    20.2539 H            1 BMD700   0.0000
    11 H5         -34.3321   -44.6480    18.9957 H            1 BMD700   0.0000
    12 H6         -33.8772   -42.9590    17.4832 H            1 BMD700   0.0000
    13 H7         -33.5157   -41.9069    18.6786 H            1 BMD700   0.0000
    14 HA1        -36.8910   -41.3026    17.0999 H            1 BMD700   0.0000
    15 HA2        -35.3432   -41.6669    16.4133 H            1 BMD700   0.0000
@<TRIPOS>BOND
     1    1    2       1
     2    2    3       1
     3    3    4       1
     4    4    5       2
     5    4    6      am
     6    1    7       1
     7    1    8       1
     8    1    9       1
     9    2   10       1
    10    2   11       1
    11    3   12       1
    12    3   13       1
    13    6   14       1
    14    6   15       1
@<TRIPOS>SUBSTRUCTURE
     1 BMD700      1 GROUP             4 C     BMD     0 **** BMD C 700
