@<TRIPOS>MOLECULE
3pzc_COA_2_ligand
   55    57     1     0     0
SMALL
NO_CHARGES


@<TRIPOS>ATOM
     1 N1A        115.4840    17.6080    14.9570 N.ar         1 COA1001   0.0000
     2 C2A        115.9830    16.8660    13.9060 C.ar         1 COA1001   0.0000
     3 N3A        117.0800    17.3220    13.2180 N.ar         1 COA1001   0.0000
     4 C4A        117.6470    18.4930    13.5700 C.ar         1 COA1001   0.0000
     5 C5A        117.1540    19.2500    14.6180 C.ar         1 COA1001   0.0000
     6 C6A        116.0550    18.7970    15.3210 C.ar         1 COA1001   0.0000
     7 N6A        115.4830    19.5590    16.2570 N.pl3        1 COA1001   0.0000
     8 N7A        117.9250    20.3590    14.7360 N.2          1 COA1001   0.0000
     9 C8A        118.8820    20.3190    13.7820 C.2          1 COA1001   0.0000
    10 N9A        118.7140    19.1670    13.0540 N.pl3        1 COA1001   0.0000
    11 C1B        119.4910    18.7090    11.8970 C.3          1 COA1001   0.0000
    12 C2B        120.0880    19.8950    11.1470 C.3          1 COA1001   0.0000
    13 O2B        119.6700    19.8770     9.8050 O.3          1 COA1001   0.0000
    14 C3B        121.5810    19.6540    11.2070 C.3          1 COA1001   0.0000
    15 O3B        122.2330    19.8830     9.9940 O.3          1 COA1001   0.0000
    16 P3B        123.4110    20.9490    10.0610 P.3          1 COA1001   0.0000
    17 O7A        122.7970    22.3210     9.9570 O.co2        1 COA1001   0.0000
    18 O8A        124.3260    20.7120     8.8850 O.co2        1 COA1001  -1.0000
    19 O9A        124.1400    20.8270    11.3740 O.co2        1 COA1001  -1.0000
    20 C4B        121.7280    18.2080    11.6120 C.3          1 COA1001   0.0000
    21 O4B        120.5630    17.9050    12.3600 O.3          1 COA1001   0.0000
    22 C5B        123.0180    18.0530    12.3990 C.3          1 COA1001   0.0000
    23 O5B        122.9590    16.8780    13.1610 O.3          1 COA1001   0.0000
    24 P1A        123.7930    15.5970    12.6740 P.3          1 COA1001   0.0000
    25 O1A        125.2730    15.7640    12.9180 O.co2        1 COA1001   0.0000
    26 O2A        123.4890    15.3000    11.2190 O.co2        1 COA1001  -1.0000
    27 O3A        123.1670    14.4910    13.6490 O.3          1 COA1001   0.0000
    28 P2A        121.8550    13.7200    13.1640 P.3          1 COA1001   0.0000
    29 O4A        121.3120    14.3470    11.9040 O.co2        1 COA1001   0.0000
    30 O5A        120.8220    13.7040    14.2630 O.co2        1 COA1001  -1.0000
    31 O6A        122.4210    12.2590    12.7940 O.3          1 COA1001   0.0000
    32 CBP        121.8740    10.0720    11.9570 C.3          1 COA1001   0.0000
    33 CCP        121.8720    11.5700    11.6960 C.3          1 COA1001   0.0000
    34 CDP        120.4500     9.5460    11.8140 C.3          1 COA1001   0.0000
    35 CEP        122.4450     9.7480    13.3350 C.3          1 COA1001   0.0000
    36 H2A        115.5490    16.0030    13.6476 H            1 COA1001   0.0000
    37 H6A1       115.9033    20.4273    16.5204 H            1 COA1001   0.0000
    38 H6A2       114.6345    19.2612    16.6944 H            1 COA1001   0.0000
    39 H8A        119.5900    21.0092    13.6324 H            1 COA1001   0.0000
    40 H1B        118.9070    18.1774    11.2836 H            1 COA1001   0.0000
    41 H2B        119.8449    20.7589    11.5880 H            1 COA1001   0.0000
    42 H7         120.4695    19.8132     9.2077 H            1 COA1001   0.0000
    43 H3B        121.9820    20.2375    11.9132 H            1 COA1001   0.0000
    44 H4B        121.7618    17.6322    10.7951 H            1 COA1001   0.0000
    45 H5B1       123.1352    18.8390    13.0060 H            1 COA1001   0.0000
    46 H5B2       123.7909    18.0022    11.7665 H            1 COA1001   0.0000
    47 HBP        122.4457     9.6307    11.2654 H            1 COA1001   0.0000
    48 HCP1       122.4165    11.7632    10.8798 H            1 COA1001   0.0000
    49 HCP2       120.9319    11.8780    11.5501 H            1 COA1001   0.0000
    50 HDP1       120.4400     8.5606    11.9838 H            1 COA1001   0.0000
    51 HDP2       119.8573    10.0044    12.4762 H            1 COA1001   0.0000
    52 HDP3       120.1188     9.7281    10.8882 H            1 COA1001   0.0000
    53 HEP1       122.4329     8.7581    13.4765 H            1 COA1001   0.0000
    54 HEP2       123.3860    10.0815    13.3927 H            1 COA1001   0.0000
    55 HEP3       121.8902    10.1921    14.0385 H            1 COA1001   0.0000
@<TRIPOS>BOND
     1    1    2      ar
     2    1    6      ar
     3    2    3      ar
     4    3    4      ar
     5    4    5      ar
     6    4   10       1
     7    5    6      ar
     8    5    8       1
     9    6    7       1
    10    8    9       2
    11    9   10       1
    12   10   11       1
    13   11   12       1
    14   11   21       1
    15   12   13       1
    16   12   14       1
    17   14   15       1
    18   14   20       1
    19   15   16       1
    20   16   17      ar
    21   16   18      ar
    22   16   19      ar
    23   20   21       1
    24   20   22       1
    25   22   23       1
    26   23   24       1
    27   24   25      ar
    28   24   26      ar
    29   24   27       1
    30   27   28       1
    31   28   29      ar
    32   28   30      ar
    33   28   31       1
    34   31   33       1
    35   32   33       1
    36   32   34       1
    37   32   35       1
    38    2   36       1
    39    7   37       1
    40    7   38       1
    41    9   39       1
    42   11   40       1
    43   12   41       1
    44   13   42       1
    45   14   43       1
    46   35   55       1
    47   35   54       1
    48   20   44       1
    49   22   45       1
    50   22   46       1
    51   35   53       1
    52   34   52       1
    53   32   47       1
    54   33   48       1
    55   33   49       1
    56   34   50       1
    57   34   51       1
@<TRIPOS>SUBSTRUCTURE
     1 COA1001     1 GROUP             4 B     COA     0 **** COA B1001
