@<TRIPOS>MOLECULE
5f6l_SAH_1_ligand
   46    48     1     0     0
SMALL
NO_CHARGES


@<TRIPOS>ATOM
     1 N           27.7540    -8.6010   344.1580 N.4          1 SAH4001   1.0000
     2 CA          28.2890    -9.0250   345.4500 C.3          1 SAH4001   0.0000
     3 CB          27.9390    -8.0310   346.5600 C.3          1 SAH4001   0.0000
     4 CG          28.9960    -6.9480   346.8070 C.3          1 SAH4001   0.0000
     5 SD          30.4810    -7.6680   347.5530 S.3          1 SAH4001   0.0000
     6 C           27.7830   -10.4250   345.7870 C.2          1 SAH4001   0.0000
     7 O           28.1220   -11.0000   346.8260 O.co2        1 SAH4001   0.0000
     8 OXT         27.0280   -11.0140   345.0070 O.co2        1 SAH4001  -1.0000
     9 C5'         31.6630    -6.6750   346.6070 C.3          1 SAH4001   0.0000
    10 C4'         32.1880    -7.4990   345.4420 C.3          1 SAH4001   0.0000
    11 O4'         31.1910    -7.5740   344.4300 O.3          1 SAH4001   0.0000
    12 C3'         33.4400    -6.9320   344.7970 C.3          1 SAH4001   0.0000
    13 O3'         34.6030    -7.5080   345.3490 O.3          1 SAH4001   0.0000
    14 C2'         33.2780    -7.3550   343.3560 C.3          1 SAH4001   0.0000
    15 O2'         33.7760    -8.6630   343.2160 O.3          1 SAH4001   0.0000
    16 C1'         31.7770    -7.4090   343.1560 C.3          1 SAH4001   0.0000
    17 N9          31.3420    -6.1210   342.5930 N.pl3        1 SAH4001   0.0000
    18 C8          30.7220    -5.1010   343.2690 C.2          1 SAH4001   0.0000
    19 N7          30.4980    -4.0810   342.4040 N.2          1 SAH4001   0.0000
    20 C5          30.9740    -4.4350   341.1880 C.ar         1 SAH4001   0.0000
    21 C6          31.0170    -3.7780   339.9650 C.ar         1 SAH4001   0.0000
    22 N6          30.5130    -2.5540   339.8330 N.pl3        1 SAH4001   0.0000
    23 N1          31.5950    -4.4090   338.8840 N.ar         1 SAH4001   0.0000
    24 C2          32.1220    -5.6760   339.0070 C.ar         1 SAH4001   0.0000
    25 N3          32.0750    -6.3240   340.2240 N.ar         1 SAH4001   0.0000
    26 C4          31.5140    -5.7140   341.2960 C.ar         1 SAH4001   0.0000
    27 H1          28.3495    -8.9317   343.4259 H            1 SAH4001   0.0000
    28 H2          26.8360    -8.9787   344.0372 H            1 SAH4001   0.0000
    29 HA          29.2853    -9.0659   345.3741 H            1 SAH4001   0.0000
    30 HB1         27.8141    -8.5438   347.4094 H            1 SAH4001   0.0000
    31 HB2         27.0815    -7.5790   346.3144 H            1 SAH4001   0.0000
    32 HG1         28.6203    -6.2563   347.4238 H            1 SAH4001   0.0000
    33 HG2         29.2393    -6.5211   345.9360 H            1 SAH4001   0.0000
    34 H5'1        32.4243    -6.4082   347.1980 H            1 SAH4001   0.0000
    35 H5'2        31.2082    -5.8553   346.2589 H            1 SAH4001   0.0000
    36 H4'         32.3854    -8.4240   345.7668 H            1 SAH4001   0.0000
    37 H3'         33.4627    -5.9354   344.8764 H            1 SAH4001   0.0000
    38 H12         34.8502    -8.3247   344.8276 H            1 SAH4001   0.0000
    39 H2'         33.7182    -6.7160   342.7252 H            1 SAH4001   0.0000
    40 H14         33.0397    -9.3194   343.3806 H            1 SAH4001   0.0000
    41 H1'         31.5267    -8.1639   342.5498 H            1 SAH4001   0.0000
    42 H16         30.4762    -5.1084   344.2383 H            1 SAH4001   0.0000
    43 H17         30.5497    -2.0910   338.9474 H            1 SAH4001   0.0000
    44 H18         30.0974    -2.0969   340.6194 H            1 SAH4001   0.0000
    45 H19         32.5376    -6.1249   338.2159 H            1 SAH4001   0.0000
    46 H20         27.7103    -7.6024   344.1268 H            1 SAH4001   0.0000
@<TRIPOS>BOND
     1    1    2       1
     2    2    3       1
     3    2    6       1
     4    3    4       1
     5    4    5       1
     6    5    9       1
     7    6    7      ar
     8    6    8      ar
     9    9   10       1
    10   10   11       1
    11   10   12       1
    12   11   16       1
    13   12   13       1
    14   12   14       1
    15   14   15       1
    16   14   16       1
    17   16   17       1
    18   17   18       1
    19   17   26       1
    20   18   19       2
    21   19   20       1
    22   20   21      ar
    23   20   26      ar
    24   21   22       1
    25   21   23      ar
    26   23   24      ar
    27   24   25      ar
    28   25   26      ar
    29    1   27       1
    30    1   28       1
    31    2   29       1
    32    3   30       1
    33    3   31       1
    34    4   32       1
    35    4   33       1
    36    1   46       1
    37    9   34       1
    38    9   35       1
    39   10   36       1
    40   12   37       1
    41   13   38       1
    42   14   39       1
    43   15   40       1
    44   16   41       1
    45   18   42       1
    46   22   43       1
    47   22   44       1
    48   24   45       1
@<TRIPOS>SUBSTRUCTURE
     1 SAH4001     1 GROUP             4 A     SAH     0 **** SAH A4001
