@<TRIPOS>MOLECULE
3ivm_ZPR_1_ligand
   46    48     1     0     0
SMALL
NO_CHARGES


@<TRIPOS>ATOM
     1 C20         12.8620    95.6070    49.6330 C.ar         1 ZPR1000   0.0000
     2 C21         12.6390    96.3410    50.8190 C.ar         1 ZPR1000   0.0000
     3 C22         13.3420    96.0050    51.9990 C.ar         1 ZPR1000   0.0000
     4 C23         14.2660    94.9360    51.9960 C.ar         1 ZPR1000   0.0000
     5 C24         14.4910    94.1980    50.8080 C.ar         1 ZPR1000   0.0000
     6 C19         13.7900    94.5340    49.6290 C.ar         1 ZPR1000   0.0000
     7 C18         14.0190    93.7490    48.3670 C.3          1 ZPR1000   0.0000
     8 O17         14.7510    94.5490    47.3970 O.3          1 ZPR1000   0.0000
     9 C15         15.0550    94.0400    46.1720 C.2          1 ZPR1000   0.0000
    10 O16         14.7000    92.8990    45.8860 O.2          1 ZPR1000   0.0000
    11 N14         15.7580    94.7950    45.2530 N.am         1 ZPR1000   0.0000
    12 C10         16.1660    94.3770    43.8810 C.3          1 ZPR1000   0.0000
    13 C8          16.9770    93.0910    43.9360 C.2          1 ZPR1000   0.0000
    14 O9          17.6450    92.8600    44.9310 O.2          1 ZPR1000   0.0000
    15 C11         16.9420    95.5460    43.2440 C.3          1 ZPR1000   0.0000
    16 C12         17.4330    96.3490    44.4830 C.3          1 ZPR1000   0.0000
    17 C13         16.2450    96.1750    45.4670 C.3          1 ZPR1000   0.0000
    18 C4          17.1520    90.0420    41.7000 C.3          1 ZPR1000   0.0000
    19 C5          16.4790    91.0840    40.7580 C.3          1 ZPR1000   0.0000
    20 C1          19.1990    91.0730    42.8120 C.2          1 ZPR1000   0.0000
    21 O2          19.8850    90.6590    43.7270 O.2          1 ZPR1000   0.0000
    22 N7          16.9610    92.1840    42.9030 N.am         1 ZPR1000   0.0000
    23 C6          16.2080    92.3210    41.6390 C.3          1 ZPR1000   0.0000
    24 C3          17.7040    90.8840    42.8880 C.3          1 ZPR1000   0.0000
    25 H1          12.3664    95.8434    48.7973 H            1 ZPR1000   0.0000
    26 H2          11.9848    97.0973    50.8242 H            1 ZPR1000   0.0000
    27 H3          13.1847    96.5256    52.8382 H            1 ZPR1000   0.0000
    28 H4          14.7610    94.7005    52.8324 H            1 ZPR1000   0.0000
    29 H5          15.1445    93.4411    50.8042 H            1 ZPR1000   0.0000
    30 H6          13.1361    93.4860    47.9779 H            1 ZPR1000   0.0000
    31 H7          14.5468    92.9272    48.5815 H            1 ZPR1000   0.0000
    32 H8          15.3413    94.2104    43.3406 H            1 ZPR1000   0.0000
    33 H9          16.3446    96.1032    42.6672 H            1 ZPR1000   0.0000
    34 H10         17.7134    95.2133    42.7015 H            1 ZPR1000   0.0000
    35 H11         17.5806    97.3120    44.2574 H            1 ZPR1000   0.0000
    36 H12         18.2754    95.9614    44.8574 H            1 ZPR1000   0.0000
    37 H13         16.5519    96.2954    46.4111 H            1 ZPR1000   0.0000
    38 H14         15.5229    96.8364    45.2643 H            1 ZPR1000   0.0000
    39 H15         17.8953    89.5679    41.2280 H            1 ZPR1000   0.0000
    40 H16         16.4820    89.3734    42.0226 H            1 ZPR1000   0.0000
    41 H17         15.6222    90.7216    40.3913 H            1 ZPR1000   0.0000
    42 H18         17.0913    91.3197    40.0033 H            1 ZPR1000   0.0000
    43 H19         19.6169    91.5289    42.0261 H            1 ZPR1000   0.0000
    44 H20         15.2297    92.3845    41.8364 H            1 ZPR1000   0.0000
    45 H21         16.5054    93.1464    41.1591 H            1 ZPR1000   0.0000
    46 H22         17.4954    90.3976    43.7365 H            1 ZPR1000   0.0000
@<TRIPOS>BOND
     1    1    2      ar
     2    1    6      ar
     3    2    3      ar
     4    3    4      ar
     5    4    5      ar
     6    5    6      ar
     7    6    7       1
     8    7    8       1
     9    8    9       1
    10    9   10       2
    11    9   11      am
    12   11   12       1
    13   11   17       1
    14   12   13       1
    15   12   15       1
    16   13   14       2
    17   13   22      am
    18   15   16       1
    19   16   17       1
    20   18   19       1
    21   18   24       1
    22   19   23       1
    23   20   21       2
    24   20   24       1
    25   22   23       1
    26   22   24       1
    27    1   25       1
    28    2   26       1
    29    3   27       1
    30    4   28       1
    31    5   29       1
    32    7   30       1
    33    7   31       1
    34   12   32       1
    35   15   33       1
    36   15   34       1
    37   16   35       1
    38   16   36       1
    39   17   37       1
    40   17   38       1
    41   18   39       1
    42   18   40       1
    43   19   41       1
    44   19   42       1
    45   20   43       1
    46   23   44       1
    47   23   45       1
    48   24   46       1
@<TRIPOS>SUBSTRUCTURE
     1 ZPR1000     1 GROUP             4 A     ZPR     0 **** ZPR A1000
