@<TRIPOS>MOLECULE
2xcm_ADP_1_ligand
   39    41     1     0     0
SMALL
NO_CHARGES


@<TRIPOS>ATOM
     1 PB         -30.8050   -35.6160   154.5170 P.3          1 ADP1211   0.0000
     2 O1B        -30.7140   -36.7590   153.5280 O.co2        1 ADP1211   0.0000
     3 O2B        -30.5050   -34.2650   153.9250 O.co2        1 ADP1211  -1.0000
     4 O3B        -32.0660   -35.6310   155.3400 O.co2        1 ADP1211  -1.0000
     5 PA         -29.5110   -36.3300   157.0600 P.3          1 ADP1211   0.0000
     6 O1A        -30.4400   -35.5240   157.9020 O.co2        1 ADP1211   0.0000
     7 O2A        -28.0630   -36.4430   157.5040 O.co2        1 ADP1211  -1.0000
     8 O3A        -29.5120   -35.8200   155.5150 O.3          1 ADP1211   0.0000
     9 O5'        -30.0620   -37.8330   156.9070 O.3          1 ADP1211   0.0000
    10 C5'        -29.3090   -38.7530   156.1180 C.3          1 ADP1211   0.0000
    11 C4'        -30.1880   -39.9250   155.6950 C.3          1 ADP1211   0.0000
    12 O4'        -30.4410   -40.8060   156.7930 O.3          1 ADP1211   0.0000
    13 C3'        -31.5670   -39.4990   155.2190 C.3          1 ADP1211   0.0000
    14 O3'        -31.5590   -39.0800   153.8490 O.3          1 ADP1211   0.0000
    15 C2'        -32.3850   -40.7520   155.4360 C.3          1 ADP1211   0.0000
    16 O2'        -32.2450   -41.6460   154.3110 O.3          1 ADP1211   0.0000
    17 C1'        -31.7410   -41.3820   156.6680 C.3          1 ADP1211   0.0000
    18 N9         -32.5250   -41.0410   157.8890 N.pl3        1 ADP1211   0.0000
    19 C8         -32.2140   -40.1180   158.8300 C.2          1 ADP1211   0.0000
    20 N7         -33.1590   -40.0780   159.8190 N.2          1 ADP1211   0.0000
    21 C5         -34.1000   -40.9960   159.5130 C.ar         1 ADP1211   0.0000
    22 C6         -35.3740   -41.4740   160.1120 C.ar         1 ADP1211   0.0000
    23 N6         -35.8460   -40.9570   161.2720 N.pl3        1 ADP1211   0.0000
    24 N1         -36.0490   -42.4560   159.4610 N.ar         1 ADP1211   0.0000
    25 C2         -35.5960   -42.9750   158.3060 C.ar         1 ADP1211   0.0000
    26 N3         -34.4450   -42.5950   157.7090 N.ar         1 ADP1211   0.0000
    27 C4         -33.6760   -41.6230   158.2470 C.ar         1 ADP1211   0.0000
    28 H5'1       -28.5380   -39.0951   156.6551 H            1 ADP1211   0.0000
    29 H5'2       -28.9662   -38.2859   155.3029 H            1 ADP1211   0.0000
    30 H4'        -29.7304   -40.4325   154.9649 H            1 ADP1211   0.0000
    31 H3'        -31.9141   -38.7615   155.7983 H            1 ADP1211   0.0000
    32 H5         -31.3776   -38.0977   153.8019 H            1 ADP1211   0.0000
    33 H2'        -33.3457   -40.5312   155.6041 H            1 ADP1211   0.0000
    34 H7         -32.7910   -42.4688   154.4691 H            1 ADP1211   0.0000
    35 H1'        -31.6753   -42.3740   156.5600 H            1 ADP1211   0.0000
    36 H9         -31.3984   -39.5399   158.8053 H            1 ADP1211   0.0000
    37 H10        -36.7054   -41.2940   161.6565 H            1 ADP1211   0.0000
    38 H11        -35.3349   -40.2384   161.7437 H            1 ADP1211   0.0000
    39 H12        -36.1437   -43.6845   157.8626 H            1 ADP1211   0.0000
@<TRIPOS>BOND
     1    1    2      ar
     2    1    3      ar
     3    1    4      ar
     4    1    8       1
     5    5    6      ar
     6    5    7      ar
     7    5    8       1
     8    5    9       1
     9    9   10       1
    10   10   11       1
    11   11   12       1
    12   11   13       1
    13   12   17       1
    14   13   14       1
    15   13   15       1
    16   15   16       1
    17   15   17       1
    18   17   18       1
    19   18   19       1
    20   18   27       1
    21   19   20       2
    22   20   21       1
    23   21   22      ar
    24   21   27      ar
    25   22   23       1
    26   22   24      ar
    27   24   25      ar
    28   25   26      ar
    29   26   27      ar
    30   25   39       1
    31   23   38       1
    32   23   37       1
    33   10   28       1
    34   10   29       1
    35   11   30       1
    36   13   31       1
    37   14   32       1
    38   15   33       1
    39   16   34       1
    40   17   35       1
    41   19   36       1
@<TRIPOS>SUBSTRUCTURE
     1 ADP1211     1 GROUP             4 A     ADP     0 **** ADP A1211
