@<TRIPOS>MOLECULE
1guf_NDP_1_ligand
   73    77     1     0     0
SMALL
NO_CHARGES


@<TRIPOS>ATOM
     1 PA          67.4640   -19.9100    58.5140 P.3          1 NDP1393   0.0000
     2 O1A         67.1180   -18.7880    59.3180 O.co2        1 NDP1393   0.0000
     3 O2A         68.1430   -21.1490    59.0500 O.co2        1 NDP1393  -1.0000
     4 O5B         66.0700   -20.3080    57.6990 O.3          1 NDP1393   0.0000
     5 C5B         66.0560   -21.4360    56.7960 C.3          1 NDP1393   0.0000
     6 C4B         64.6490   -21.3940    56.1790 C.3          1 NDP1393   0.0000
     7 O4B         64.5220   -22.4550    55.1980 O.3          1 NDP1393   0.0000
     8 C3B         63.4020   -21.4590    57.0350 C.3          1 NDP1393   0.0000
     9 O3B         62.5110   -20.4340    56.5460 O.3          1 NDP1393   0.0000
    10 C2B         62.7860   -22.8090    56.7610 C.3          1 NDP1393   0.0000
    11 O2B         61.3630   -22.9950    56.8970 O.3          1 NDP1393   0.0000
    12 C1B         63.2480   -23.0330    55.3950 C.3          1 NDP1393   0.0000
    13 N9A         63.2720   -24.4520    55.0130 N.pl3        1 NDP1393   0.0000
    14 C8A         63.9730   -25.5090    55.6300 C.2          1 NDP1393   0.0000
    15 N7A         63.7640   -26.6450    55.0020 N.2          1 NDP1393   0.0000
    16 C5A         62.9250   -26.3640    53.9600 C.ar         1 NDP1393   0.0000
    17 C6A         62.3460   -27.1450    52.9360 C.ar         1 NDP1393   0.0000
    18 N6A         62.6150   -28.4630    52.8700 N.pl3        1 NDP1393   0.0000
    19 N1A         61.5300   -26.5450    52.0250 N.ar         1 NDP1393   0.0000
    20 C2A         61.2770   -25.2120    52.1160 C.ar         1 NDP1393   0.0000
    21 N3A         61.7800   -24.3860    53.0490 N.ar         1 NDP1393   0.0000
    22 C4A         62.6030   -25.0300    53.9530 C.ar         1 NDP1393   0.0000
    23 O3          68.2670   -19.4060    57.2760 O.3          1 NDP1393   0.0000
    24 PN          69.2140   -18.1710    56.9790 P.3          1 NDP1393   0.0000
    25 O1N         68.4900   -16.9900    56.4690 O.co2        1 NDP1393   0.0000
    26 O2N         70.6670   -18.4590    56.9370 O.co2        1 NDP1393  -1.0000
    27 O5D         69.2020   -18.7670    55.4470 O.3          1 NDP1393   0.0000
    28 C5D         69.7490   -20.0400    55.0080 C.3          1 NDP1393   0.0000
    29 C4D         69.5100   -20.2630    53.4550 C.3          1 NDP1393   0.0000
    30 O4D         69.8760   -19.0700    52.7270 O.3          1 NDP1393   0.0000
    31 C3D         70.4820   -21.3180    52.9890 C.3          1 NDP1393   0.0000
    32 O3D         70.0140   -21.9130    51.7730 O.3          1 NDP1393   0.0000
    33 C2D         71.7460   -20.5070    52.9160 C.3          1 NDP1393   0.0000
    34 O2D         72.7600   -21.2680    52.3700 O.3          1 NDP1393   0.0000
    35 C1D         71.1540   -19.3040    52.0570 C.3          1 NDP1393   0.0000
    36 N1N         72.0150   -18.0770    52.1420 N.ar         1 NDP1393   1.0000
    37 C2N         72.7710   -17.8190    50.9890 C.ar         1 NDP1393   0.0000
    38 C3N         73.6150   -16.6580    50.9750 C.ar         1 NDP1393   0.0000
    39 C7N         74.4000   -16.3650    49.7690 C.2          1 NDP1393   0.0000
    40 O7N         75.2120   -15.4150    49.6820 O.2          1 NDP1393   0.0000
    41 N7N         74.2240   -17.1250    48.6610 N.am         1 NDP1393   0.0000
    42 C4N         73.6380   -15.8430    52.1110 C.ar         1 NDP1393   0.0000
    43 C5N         72.8860   -16.1100    53.2370 C.ar         1 NDP1393   0.0000
    44 C6N         72.0710   -17.2270    53.2560 C.ar         1 NDP1393   0.0000
    45 P2B         60.5060   -22.9290    58.1750 P.3          1 NDP1393   0.0000
    46 O1X         59.2060   -23.4000    57.6740 O.co2        1 NDP1393   0.0000
    47 O2X         60.4630   -21.5640    58.7110 O.co2        1 NDP1393  -1.0000
    48 O3X         61.0970   -23.8920    59.2020 O.co2        1 NDP1393  -1.0000
    49 H5B1        66.2019   -22.2917    57.2925 H            1 NDP1393   0.0000
    50 H5B2        66.7576   -21.3363    56.0904 H            1 NDP1393   0.0000
    51 H4B         64.5933   -20.5352    55.6698 H            1 NDP1393   0.0000
    52 H3B         63.6112   -21.3367    58.0052 H            1 NDP1393   0.0000
    53 H5          61.6687   -20.4397    57.0849 H            1 NDP1393   0.0000
    54 H2B         63.2395   -23.4774    57.3506 H            1 NDP1393   0.0000
    55 H1B         62.6093   -22.5679    54.7820 H            1 NDP1393   0.0000
    56 H8A         64.5526   -25.4077    56.4386 H            1 NDP1393   0.0000
    57 H6A1        62.2077   -29.0208    52.1469 H            1 NDP1393   0.0000
    58 H6A2        63.2221   -28.8838    53.5441 H            1 NDP1393   0.0000
    59 H2A         60.6661   -24.8134    51.4320 H            1 NDP1393   0.0000
    60 H5D1        69.3048   -20.7782    55.5156 H            1 NDP1393   0.0000
    61 H5D2        70.7319   -20.0534    55.1919 H            1 NDP1393   0.0000
    62 H4D         68.5648   -20.5295    53.2663 H            1 NDP1393   0.0000
    63 H3D         70.5755   -22.0223    53.6927 H            1 NDP1393   0.0000
    64 H16         70.6639   -22.6107    51.4716 H            1 NDP1393   0.0000
    65 H2D         72.0053   -20.1871    53.8273 H            1 NDP1393   0.0000
    66 H18         73.5976   -20.7236    52.3240 H            1 NDP1393   0.0000
    67 H1D         71.0145   -19.5782    51.1055 H            1 NDP1393   0.0000
    68 H2N         72.7232   -18.4281    50.1973 H            1 NDP1393   0.0000
    69 H7N1        74.7534   -16.9340    47.8344 H            1 NDP1393   0.0000
    70 H7N2        73.5647   -17.8768    48.6699 H            1 NDP1393   0.0000
    71 H4N         74.2239   -15.0327    52.1074 H            1 NDP1393   0.0000
    72 H5N         72.9300   -15.5026    54.0302 H            1 NDP1393   0.0000
    73 H6N         71.5203   -17.4291    54.0659 H            1 NDP1393   0.0000
@<TRIPOS>BOND
     1    1    2      ar
     2    1    3      ar
     3    1    4       1
     4    1   23       1
     5    4    5       1
     6    5    6       1
     7    6    7       1
     8    6    8       1
     9    7   12       1
    10    8    9       1
    11    8   10       1
    12   10   11       1
    13   10   12       1
    14   11   45       1
    15   12   13       1
    16   13   14       1
    17   13   22       1
    18   14   15       2
    19   15   16       1
    20   16   17      ar
    21   16   22      ar
    22   17   18       1
    23   17   19      ar
    24   19   20      ar
    25   20   21      ar
    26   21   22      ar
    27   23   24       1
    28   24   25      ar
    29   24   26      ar
    30   24   27       1
    31   27   28       1
    32   28   29       1
    33   29   30       1
    34   29   31       1
    35   30   35       1
    36   31   32       1
    37   31   33       1
    38   33   34       1
    39   33   35       1
    40   35   36       1
    41   36   37      ar
    42   36   44      ar
    43   37   38      ar
    44   38   39       1
    45   38   42      ar
    46   39   40       2
    47   39   41      am
    48   42   43      ar
    49   43   44      ar
    50   45   46      ar
    51   45   47      ar
    52   45   48      ar
    53   43   72       1
    54    5   49       1
    55    5   50       1
    56    6   51       1
    57    8   52       1
    58    9   53       1
    59   10   54       1
    60   12   55       1
    61   14   56       1
    62   18   57       1
    63   18   58       1
    64   20   59       1
    65   44   73       1
    66   28   60       1
    67   28   61       1
    68   29   62       1
    69   31   63       1
    70   32   64       1
    71   33   65       1
    72   34   66       1
    73   35   67       1
    74   37   68       1
    75   41   69       1
    76   41   70       1
    77   42   71       1
@<TRIPOS>SUBSTRUCTURE
     1 NDP1393     1 GROUP             4 A     NDP     0 **** NDP A1393
