@<TRIPOS>MOLECULE
4i53_1C1_2_ligand
   48    50     1     0     0
SMALL
NO_CHARGES


@<TRIPOS>ATOM
     1 N01        -13.2030   -62.7170    17.8990 N.pl3        1 1C1501   1.0000
     2 C02        -13.3120   -62.3000    16.6490 C.cat        1 1C1501   0.0000
     3 N03        -14.4940   -61.6690    16.0730 N.pl3        1 1C1501   0.0000
     4 C04        -15.7880   -61.5000    16.7190 C.3          1 1C1501   0.0000
     5 C05        -16.1070   -60.0380    16.9700 C.3          1 1C1501   0.0000
     6 C06        -17.5780   -59.8550    17.2110 C.3          1 1C1501   0.0000
     7 C07        -17.6800   -59.6350    18.6980 C.ar         1 1C1501   0.0000
     8 C08        -18.8940   -59.5630    19.5430 C.ar         1 1C1501   0.0000
     9 C09        -18.7340   -59.3050    20.9130 C.ar         1 1C1501   0.0000
    10 C10        -17.4800   -59.1640    21.5030 C.ar         1 1C1501   0.0000
    11 C11        -16.3150   -59.2470    20.7210 C.ar         1 1C1501   0.0000
    12 C12        -16.4670   -59.4970    19.2560 C.ar         1 1C1501   0.0000
    13 C13        -15.4350   -59.6100    18.1760 C.3          1 1C1501   0.0000
    14 N14        -14.8810   -58.2960    17.9950 N.am         1 1C1501   0.0000
    15 C15        -13.4870   -57.9900    17.7690 C.2          1 1C1501   0.0000
    16 O16        -12.6130   -58.7820    17.8820 O.2          1 1C1501   0.0000
    17 C17        -13.1760   -56.5580    17.7780 C.2          1 1C1501   0.0000
    18 O18        -14.0550   -55.7910    18.0990 O.2          1 1C1501   0.0000
    19 N19        -11.9500   -56.1970    17.1330 N.am         1 1C1501   0.0000
    20 C20        -11.5460   -54.8760    16.7480 C.ar         1 1C1501   0.0000
    21 C21        -11.9780   -53.8350    17.3810 C.ar         1 1C1501   0.0000
    22 C22        -11.4940   -52.5630    17.2340 C.ar         1 1C1501   0.0000
    23 F23        -11.9710   -51.5360    17.8740 F            1 1C1501   0.0000
    24 C24        -10.4410   -52.4600    16.2670 C.ar         1 1C1501   0.0000
    25 CL1         -9.8100   -50.9060    16.0160 Cl           1 1C1501   0.0000
    26 C26         -9.9850   -53.6020    15.5840 C.ar         1 1C1501   0.0000
    27 C27        -10.5730   -54.7940    15.8570 C.ar         1 1C1501   0.0000
    28 N28        -12.2870   -62.4760    15.8960 N.pl3        1 1C1501   0.0000
    29 H1         -12.3531   -63.1405    18.2125 H            1 1C1501   0.0000
    30 H2         -13.9705   -62.6088    18.5309 H            1 1C1501   0.0000
    31 H3         -14.4071   -61.3171    15.1410 H            1 1C1501   0.0000
    32 H4         -15.7784   -61.9839    17.5941 H            1 1C1501   0.0000
    33 H5         -16.4966   -61.8893    16.1306 H            1 1C1501   0.0000
    34 H6         -15.8119   -59.4813    16.1935 H            1 1C1501   0.0000
    35 H7         -18.0872   -60.6708    16.9368 H            1 1C1501   0.0000
    36 H8         -17.9242   -59.0619    16.7099 H            1 1C1501   0.0000
    37 H9         -19.8032   -59.6947    19.1480 H            1 1C1501   0.0000
    38 H10        -19.5490   -59.2193    21.4861 H            1 1C1501   0.0000
    39 H11        -17.4083   -59.0030    22.4873 H            1 1C1501   0.0000
    40 H12        -15.4102   -59.1417    21.1335 H            1 1C1501   0.0000
    41 H13        -14.7222   -60.2621    18.4344 H            1 1C1501   0.0000
    42 H14        -15.5170   -57.5250    18.0285 H            1 1C1501   0.0000
    43 H15        -11.3119   -56.9399    16.9308 H            1 1C1501   0.0000
    44 H16        -12.7262   -53.9698    18.0306 H            1 1C1501   0.0000
    45 H17         -9.2457   -53.5370    14.9138 H            1 1C1501   0.0000
    46 H18        -10.2675   -55.6180    15.3798 H            1 1C1501   0.0000
    47 H19        -12.3115   -62.1804    14.9410 H            1 1C1501   0.0000
    48 H20        -11.4642   -62.9086    16.2646 H            1 1C1501   0.0000
@<TRIPOS>BOND
     1    1    2      ar
     2    2    3      ar
     3    2   28      ar
     4    3    4       1
     5    4    5       1
     6    5    6       1
     7    5   13       1
     8    6    7       1
     9    7    8      ar
    10    7   12      ar
    11    8    9      ar
    12    9   10      ar
    13   10   11      ar
    14   11   12      ar
    15   12   13       1
    16   13   14       1
    17   14   15      am
    18   15   16       2
    19   15   17       1
    20   17   18       2
    21   17   19      am
    22   19   20       1
    23   20   21      ar
    24   20   27      ar
    25   21   22      ar
    26   22   23       1
    27   22   24      ar
    28   24   25       1
    29   24   26      ar
    30   26   27      ar
    31    1   29       1
    32    1   30       1
    33    3   31       1
    34    4   32       1
    35    4   33       1
    36    5   34       1
    37    6   35       1
    38    6   36       1
    39    8   37       1
    40    9   38       1
    41   10   39       1
    42   11   40       1
    43   13   41       1
    44   14   42       1
    45   19   43       1
    46   21   44       1
    47   26   45       1
    48   27   46       1
    49   28   47       1
    50   28   48       1
@<TRIPOS>SUBSTRUCTURE
     1 1C1501      1 GROUP             4 B     1C1     0 **** 1C1 B 501
