@<TRIPOS>MOLECULE
3bus_SAH_1_ligand
   46    48     1     0     0
SMALL
NO_CHARGES


@<TRIPOS>ATOM
     1 N           12.2780    34.1390    27.6620 N.4          1 SAH274   1.0000
     2 CA          11.7060    33.6450    28.9470 C.3          1 SAH274   0.0000
     3 CB          12.7540    33.5250    30.0450 C.3          1 SAH274   0.0000
     4 CG          14.0790    32.9430    29.5870 C.3          1 SAH274   0.0000
     5 SD          14.9890    32.2520    30.9850 S.3          1 SAH274   0.0000
     6 C           10.5980    34.5810    29.3990 C.2          1 SAH274   0.0000
     7 O            9.4530    34.1640    29.5680 O.co2        1 SAH274   0.0000
     8 OXT         10.8320    35.7750    29.6000 O.co2        1 SAH274  -1.0000
     9 C5'         15.5570    30.8310    30.0120 C.3          1 SAH274   0.0000
    10 C4'         14.5730    29.6780    29.8160 C.3          1 SAH274   0.0000
    11 O4'         15.1530    28.7200    28.9490 O.3          1 SAH274   0.0000
    12 C3'         14.2170    28.9290    31.0860 C.3          1 SAH274   0.0000
    13 O3'         12.8190    28.7850    31.0580 O.3          1 SAH274   0.0000
    14 C2'         14.9060    27.5700    30.9710 C.3          1 SAH274   0.0000
    15 O2'         14.1700    26.4920    31.5100 O.3          1 SAH274   0.0000
    16 C1'         15.0740    27.4060    29.4720 C.3          1 SAH274   0.0000
    17 N9          16.2870    26.6470    29.1110 N.pl3        1 SAH274   0.0000
    18 C8          17.5080    26.6470    29.7460 C.2          1 SAH274   0.0000
    19 N7          18.3460    25.8160    29.0850 N.2          1 SAH274   0.0000
    20 C5          17.6780    25.2910    28.0330 C.ar         1 SAH274   0.0000
    21 C6          18.0460    24.3910    27.0370 C.ar         1 SAH274   0.0000
    22 N6          19.2760    23.8920    27.0220 N.pl3        1 SAH274   0.0000
    23 N1          17.1370    24.0240    26.0610 N.ar         1 SAH274   0.0000
    24 C2          15.8540    24.5440    26.0800 C.ar         1 SAH274   0.0000
    25 N3          15.4870    25.4390    27.0750 N.ar         1 SAH274   0.0000
    26 C4          16.3830    25.8060    28.0340 C.ar         1 SAH274   0.0000
    27 H1          12.1306    33.4556    26.9470 H            1 SAH274   0.0000
    28 H2          11.8282    34.9940    27.4037 H            1 SAH274   0.0000
    29 HA          11.3099    32.7405    28.7889 H            1 SAH274   0.0000
    30 HB1         12.3863    32.9367    30.7652 H            1 SAH274   0.0000
    31 HB2         12.9249    34.4381    30.4153 H            1 SAH274   0.0000
    32 HG1         14.6261    33.6652    29.1638 H            1 SAH274   0.0000
    33 HG2         13.9064    32.2201    28.9180 H            1 SAH274   0.0000
    34 H5'1        16.3673    30.4606    30.4660 H            1 SAH274   0.0000
    35 H5'2        15.8083    31.1690    29.1050 H            1 SAH274   0.0000
    36 H4'         13.7353    30.0308    29.3992 H            1 SAH274   0.0000
    37 H3'         14.5181    29.4248    31.9005 H            1 SAH274   0.0000
    38 H12         12.5180    28.2945    31.8758 H            1 SAH274   0.0000
    39 H2'         15.8053    27.6125    31.4062 H            1 SAH274   0.0000
    40 H14         13.2943    26.4149    31.0334 H            1 SAH274   0.0000
    41 H1'         14.2697    26.9461    29.0956 H            1 SAH274   0.0000
    42 H16         17.7382    27.1754    30.5632 H            1 SAH274   0.0000
    43 H17         19.5445    23.2451    26.3082 H            1 SAH274   0.0000
    44 H18         19.9341    24.1630    27.7245 H            1 SAH274   0.0000
    45 H19         15.1937    24.2754    25.3787 H            1 SAH274   0.0000
    46 H20         13.2589    34.2988    27.7733 H            1 SAH274   0.0000
@<TRIPOS>BOND
     1    1    2       1
     2    2    3       1
     3    2    6       1
     4    3    4       1
     5    4    5       1
     6    5    9       1
     7    6    7      ar
     8    6    8      ar
     9    9   10       1
    10   10   11       1
    11   10   12       1
    12   11   16       1
    13   12   13       1
    14   12   14       1
    15   14   15       1
    16   14   16       1
    17   16   17       1
    18   17   18       1
    19   17   26       1
    20   18   19       2
    21   19   20       1
    22   20   21      ar
    23   20   26      ar
    24   21   22       1
    25   21   23      ar
    26   23   24      ar
    27   24   25      ar
    28   25   26      ar
    29    1   27       1
    30    1   28       1
    31    2   29       1
    32    3   30       1
    33    3   31       1
    34    4   32       1
    35    4   33       1
    36    1   46       1
    37    9   34       1
    38    9   35       1
    39   10   36       1
    40   12   37       1
    41   13   38       1
    42   14   39       1
    43   15   40       1
    44   16   41       1
    45   18   42       1
    46   22   43       1
    47   22   44       1
    48   24   45       1
@<TRIPOS>SUBSTRUCTURE
     1 SAH274      1 GROUP             4 A     SAH     0 **** SAH A 274
