@<TRIPOS>MOLECULE
3b20_NAD_5_ligand
   70    74     1     0     0
SMALL
NO_CHARGES


@<TRIPOS>ATOM
     1 PA         120.3850    95.4700    79.2900 P.3          1 NAD340   0.0000
     2 O1A        121.4850    95.9860    78.3870 O.co2        1 NAD340   0.0000
     3 O2A        119.0750    95.4690    78.5300 O.co2        1 NAD340  -1.0000
     4 O5B        120.2230    96.4210    80.5890 O.3          1 NAD340   0.0000
     5 C5B        121.4930    97.0160    80.8760 C.3          1 NAD340   0.0000
     6 C4B        121.3470    98.5370    80.8290 C.3          1 NAD340   0.0000
     7 O4B        122.1570    99.1670    81.8330 O.3          1 NAD340   0.0000
     8 C3B        121.8820    99.0150    79.4730 C.3          1 NAD340   0.0000
     9 O3B        120.8080    99.0950    78.5250 O.3          1 NAD340   0.0000
    10 C2B        122.5460   100.3920    79.7820 C.3          1 NAD340   0.0000
    11 O2B        121.7300   101.4710    79.3160 O.3          1 NAD340   0.0000
    12 C1B        122.6660   100.4340    81.3380 C.3          1 NAD340   0.0000
    13 N9A        124.0590   100.5670    81.7930 N.pl3        1 NAD340   0.0000
    14 C8A        125.1110    99.8190    81.3340 C.2          1 NAD340   0.0000
    15 N7A        126.2130   100.1680    81.9420 N.2          1 NAD340   0.0000
    16 C5A        125.9500   101.1530    82.8350 C.ar         1 NAD340   0.0000
    17 C6A        126.7350   101.8850    83.7440 C.ar         1 NAD340   0.0000
    18 N6A        128.0980   101.6430    83.8470 N.pl3        1 NAD340   0.0000
    19 N1A        126.1340   102.8100    84.4930 N.ar         1 NAD340   0.0000
    20 C2A        124.8350   103.0390    84.3890 C.ar         1 NAD340   0.0000
    21 N3A        124.0620   102.3760    83.5490 N.ar         1 NAD340   0.0000
    22 C4A        124.5660   101.4290    82.7540 C.ar         1 NAD340   0.0000
    23 O3         120.8320    93.9820    79.7610 O.3          1 NAD340   0.0000
    24 PN         119.7050    93.1950    80.6250 P.3          1 NAD340   0.0000
    25 O1N        118.6230    94.1640    81.1980 O.co2        1 NAD340   0.0000
    26 O2N        119.0360    92.1690    79.6730 O.co2        1 NAD340  -1.0000
    27 O5D        120.4170    92.3140    81.7970 O.3          1 NAD340   0.0000
    28 C5D        121.3570    93.0660    82.5980 C.3          1 NAD340   0.0000
    29 C4D        121.8430    92.2580    83.8260 C.3          1 NAD340   0.0000
    30 O4D        120.7360    91.4930    84.3810 O.3          1 NAD340   0.0000
    31 C3D        122.9500    91.2250    83.4880 C.3          1 NAD340   0.0000
    32 O3D        123.8770    91.1430    84.5800 O.3          1 NAD340   0.0000
    33 C2D        122.1800    89.8880    83.3390 C.3          1 NAD340   0.0000
    34 O2D        122.9690    88.7380    83.6730 O.3          1 NAD340   0.0000
    35 C1D        121.0340    90.0650    84.3590 C.3          1 NAD340   0.0000
    36 N1N        119.8310    89.2850    83.9830 N.ar         1 NAD340   1.0000
    37 C2N        119.3010    89.4320    82.7780 C.ar         1 NAD340   0.0000
    38 C3N        118.1590    88.7130    82.4070 C.ar         1 NAD340   0.0000
    39 C7N        117.5950    88.8950    81.0500 C.2          1 NAD340   0.0000
    40 O7N        116.4950    88.4440    80.7720 O.2          1 NAD340   0.0000
    41 N7N        118.3180    89.5760    80.1330 N.am         1 NAD340   0.0000
    42 C4N        117.5700    87.8290    83.3240 C.ar         1 NAD340   0.0000
    43 C5N        118.1580    87.7100    84.5690 C.ar         1 NAD340   0.0000
    44 C6N        119.2910    88.4580    84.8680 C.ar         1 NAD340   0.0000
    45 H5B1       122.1635    96.7216    80.1950 H            1 NAD340   0.0000
    46 H5B2       121.7973    96.7356    81.7864 H            1 NAD340   0.0000
    47 H4B        120.3883    98.7994    80.9384 H            1 NAD340   0.0000
    48 H3B        122.5752    98.3751    79.1414 H            1 NAD340   0.0000
    49 H5         120.7155    98.2191    78.0514 H            1 NAD340   0.0000
    50 H2B        123.4533   100.4396    79.3641 H            1 NAD340   0.0000
    51 H7         120.7681   101.1996    79.3484 H            1 NAD340   0.0000
    52 H1B        122.1164   101.1864    81.7012 H            1 NAD340   0.0000
    53 H8A        125.0447    99.1079    80.6340 H            1 NAD340   0.0000
    54 H6A1       128.6512   102.1665    84.4950 H            1 NAD340   0.0000
    55 H6A2       128.5267   100.9452    83.2732 H            1 NAD340   0.0000
    56 H2A        124.4228   103.7415    84.9692 H            1 NAD340   0.0000
    57 H5D1       120.9130    93.9034    82.9168 H            1 NAD340   0.0000
    58 H5D2       122.1474    93.3022    82.0327 H            1 NAD340   0.0000
    59 H4D        122.1855    92.8907    84.5205 H            1 NAD340   0.0000
    60 H3D        123.4179    91.4661    82.6377 H            1 NAD340   0.0000
    61 H17        124.5906    90.4772    84.3622 H            1 NAD340   0.0000
    62 H2D        121.8115    89.8001    82.4135 H            1 NAD340   0.0000
    63 H19        123.4378    88.4062    82.8544 H            1 NAD340   0.0000
    64 H1D        121.3472    89.7770    85.2639 H            1 NAD340   0.0000
    65 H2N        119.7213    90.0635    82.1264 H            1 NAD340   0.0000
    66 H7N1       117.9561    89.7106    79.2105 H            1 NAD340   0.0000
    67 H7N2       119.2147    89.9452    80.3771 H            1 NAD340   0.0000
    68 H4N        116.7534    87.3036    83.0850 H            1 NAD340   0.0000
    69 H5N        117.7707    87.0894    85.2508 H            1 NAD340   0.0000
    70 H6N        119.7089    88.3703    85.7722 H            1 NAD340   0.0000
@<TRIPOS>BOND
     1    1    2      ar
     2    1    3      ar
     3    1    4       1
     4    1   23       1
     5    4    5       1
     6    5    6       1
     7    6    7       1
     8    6    8       1
     9    7   12       1
    10    8    9       1
    11    8   10       1
    12   10   11       1
    13   10   12       1
    14   12   13       1
    15   13   14       1
    16   13   22       1
    17   14   15       2
    18   15   16       1
    19   16   17      ar
    20   16   22      ar
    21   17   18       1
    22   17   19      ar
    23   19   20      ar
    24   20   21      ar
    25   21   22      ar
    26   23   24       1
    27   24   25      ar
    28   24   26      ar
    29   24   27       1
    30   27   28       1
    31   28   29       1
    32   29   30       1
    33   29   31       1
    34   30   35       1
    35   31   32       1
    36   31   33       1
    37   33   34       1
    38   33   35       1
    39   35   36       1
    40   36   37      ar
    41   36   44      ar
    42   37   38      ar
    43   38   39       1
    44   38   42      ar
    45   39   40       2
    46   39   41      am
    47   42   43      ar
    48   43   44      ar
    49   44   70       1
    50    5   45       1
    51    5   46       1
    52    6   47       1
    53    8   48       1
    54    9   49       1
    55   10   50       1
    56   11   51       1
    57   12   52       1
    58   14   53       1
    59   18   54       1
    60   18   55       1
    61   20   56       1
    62   43   69       1
    63   28   57       1
    64   28   58       1
    65   29   59       1
    66   31   60       1
    67   32   61       1
    68   33   62       1
    69   34   63       1
    70   35   64       1
    71   37   65       1
    72   41   66       1
    73   41   67       1
    74   42   68       1
@<TRIPOS>SUBSTRUCTURE
     1 NAD340      1 GROUP             4 Q     NAD     0 **** NAD Q 340
