@<TRIPOS>MOLECULE
1d4o_NAP_1_ligand
   73    77     1     0     0
SMALL
NO_CHARGES


@<TRIPOS>ATOM
     1 PA          17.1740    26.1340    12.0400 P.3          1 NAP201   0.0000
     2 O1A         16.0480    25.3140    12.5000 O.co2        1 NAP201   0.0000
     3 O2A         18.4780    26.1140    12.6700 O.co2        1 NAP201  -1.0000
     4 O5B         17.3170    25.8890    10.4370 O.3          1 NAP201   0.0000
     5 C5B         17.8130    26.9900     9.4950 C.3          1 NAP201   0.0000
     6 C4B         17.9620    26.1550     8.3450 C.3          1 NAP201   0.0000
     7 O4B         17.8590    27.3510     7.2940 O.3          1 NAP201   0.0000
     8 C3B         18.8400    25.7890     7.5350 C.3          1 NAP201   0.0000
     9 O3B         18.2080    24.5970     7.8390 O.3          1 NAP201   0.0000
    10 C2B         19.2760    25.7510     6.1470 C.3          1 NAP201   0.0000
    11 O2B         18.8830    24.7390     5.4810 O.3          1 NAP201   0.0000
    12 C1B         18.3940    26.8940     5.9880 C.3          1 NAP201   0.0000
    13 N9A         19.2370    28.0900     5.5900 N.pl3        1 NAP201   0.0000
    14 C8A         20.4660    28.6370     6.0110 C.2          1 NAP201   0.0000
    15 N7A         20.9350    29.5480     5.1920 N.2          1 NAP201   0.0000
    16 C5A         20.0030    29.6240     4.1730 C.ar         1 NAP201   0.0000
    17 C6A         19.9350    30.4020     2.9750 C.ar         1 NAP201   0.0000
    18 N6A         20.8890    31.2620     2.6350 N.pl3        1 NAP201   0.0000
    19 N1A         18.8410    30.2300     2.1530 N.ar         1 NAP201   0.0000
    20 C2A         17.8670    29.3500     2.4800 C.ar         1 NAP201   0.0000
    21 N3A         17.8590    28.5740     3.5790 N.ar         1 NAP201   0.0000
    22 C4A         18.9620    28.7580     4.3950 C.ar         1 NAP201   0.0000
    23 O3          16.4580    27.5660    12.2080 O.3          1 NAP201   0.0000
    24 PN          15.2160    28.0680    13.1530 P.3          1 NAP201   0.0000
    25 O1N         13.9830    27.4170    12.6420 O.co2        1 NAP201   0.0000
    26 O2N         15.3080    29.5540    13.0930 O.co2        1 NAP201  -1.0000
    27 O5D         15.4870    27.6580    14.6850 O.3          1 NAP201   0.0000
    28 C5D         16.5990    28.1690    15.4750 C.3          1 NAP201   0.0000
    29 C4D         17.3950    26.9680    16.0250 C.3          1 NAP201   0.0000
    30 O4D         18.6530    27.3660    16.6140 O.3          1 NAP201   0.0000
    31 C3D         16.6940    26.1930    17.1670 C.3          1 NAP201   0.0000
    32 O3D         17.0850    24.8060    17.2870 O.3          1 NAP201   0.0000
    33 C2D         17.0930    26.9360    18.3930 C.3          1 NAP201   0.0000
    34 O2D         16.9790    26.2050    19.5880 O.3          1 NAP201   0.0000
    35 C1D         18.5690    27.2430    18.0380 C.3          1 NAP201   0.0000
    36 N1N         19.1250    28.3610    18.8110 N.ar         1 NAP201   1.0000
    37 C2N         18.5550    29.6410    18.6670 C.ar         1 NAP201   0.0000
    38 C3N         19.1410    30.6830    19.4650 C.ar         1 NAP201   0.0000
    39 C7N         18.6520    32.0500    19.4140 C.2          1 NAP201   0.0000
    40 O7N         19.1610    32.9430    20.1020 O.2          1 NAP201   0.0000
    41 N7N         17.6220    32.3900    18.6160 N.am         1 NAP201   0.0000
    42 C4N         20.2220    30.3760    20.3170 C.ar         1 NAP201   0.0000
    43 C5N         20.7460    29.1390    20.4350 C.ar         1 NAP201   0.0000
    44 C6N         20.2020    28.1290    19.6810 C.ar         1 NAP201   0.0000
    45 P2B         19.6640    24.5550     4.0970 P.3          1 NAP201   0.0000
    46 O1X         21.1170    24.3600     4.4040 O.co2        1 NAP201   0.0000
    47 O2X         18.9640    23.4100     3.5430 O.co2        1 NAP201  -1.0000
    48 O3X         19.3910    25.7980     3.3810 O.co2        1 NAP201  -1.0000
    49 H5B1        18.6784    27.3921     9.7940 H            1 NAP201   0.0000
    50 H5B2        17.1375    27.7149     9.3600 H            1 NAP201   0.0000
    51 H4B         17.1602    25.5640     8.2565 H            1 NAP201   0.0000
    52 H3B         19.6860    25.7713     8.0678 H            1 NAP201   0.0000
    53 H5          18.8686    23.9622     8.2398 H            1 NAP201   0.0000
    54 H2B         20.2443    25.9668     6.0212 H            1 NAP201   0.0000
    55 H1B         17.6648    26.7144     5.3277 H            1 NAP201   0.0000
    56 H8A         20.9335    28.3585     6.8500 H            1 NAP201   0.0000
    57 H6A1        20.8083    31.7897     1.7894 H            1 NAP201   0.0000
    58 H6A2        21.6877    31.3816     3.2247 H            1 NAP201   0.0000
    59 H2A         17.0907    29.2699     1.8547 H            1 NAP201   0.0000
    60 H5D1        16.2501    28.7193    16.2336 H            1 NAP201   0.0000
    61 H5D2        17.1918    28.7325    14.8995 H            1 NAP201   0.0000
    62 H4D         17.5791    26.3344    15.2736 H            1 NAP201   0.0000
    63 H3D         15.7026    26.2510    17.0498 H            1 NAP201   0.0000
    64 H16         16.8701    24.3244    16.4374 H            1 NAP201   0.0000
    65 H2D         16.5732    27.7875    18.4617 H            1 NAP201   0.0000
    66 H18         16.0280    25.9243    19.7176 H            1 NAP201   0.0000
    67 H1D         19.0980    26.4317    18.2870 H            1 NAP201   0.0000
    68 H2N         17.7894    29.8142    18.0474 H            1 NAP201   0.0000
    69 H7N1        17.2982    33.3358    18.5933 H            1 NAP201   0.0000
    70 H7N2        17.1809    31.6967    18.0461 H            1 NAP201   0.0000
    71 H4N         20.6206    31.1137    20.8619 H            1 NAP201   0.0000
    72 H5N         21.5103    28.9622    21.0551 H            1 NAP201   0.0000
    73 H6N         20.5817    27.2067    19.7532 H            1 NAP201   0.0000
@<TRIPOS>BOND
     1    1    2      ar
     2    1    3      ar
     3    1    4       1
     4    1   23       1
     5    4    5       1
     6    5    6       1
     7    6    7       1
     8    6    8       1
     9   45   48      ar
    10    7   12       1
    11    8    9       1
    12    8   10       1
    13   10   11       1
    14   10   12       1
    15   11   45       1
    16   12   13       1
    17   13   14       1
    18   13   22       1
    19   14   15       2
    20   15   16       1
    21   16   17      ar
    22   16   22      ar
    23   17   18       1
    24   17   19      ar
    25   19   20      ar
    26   20   21      ar
    27   21   22      ar
    28   23   24       1
    29   24   25      ar
    30   24   26      ar
    31   24   27       1
    32   27   28       1
    33   28   29       1
    34   29   30       1
    35   29   31       1
    36   30   35       1
    37   31   32       1
    38   31   33       1
    39   33   34       1
    40   33   35       1
    41   35   36       1
    42   36   37      ar
    43   36   44      ar
    44   37   38      ar
    45   38   39       1
    46   38   42      ar
    47   39   40       2
    48   39   41      am
    49   42   43      ar
    50   43   44      ar
    51   45   46      ar
    52   45   47      ar
    53   43   72       1
    54    5   49       1
    55    5   50       1
    56    6   51       1
    57    8   52       1
    58    9   53       1
    59   10   54       1
    60   12   55       1
    61   14   56       1
    62   18   57       1
    63   18   58       1
    64   20   59       1
    65   44   73       1
    66   28   60       1
    67   28   61       1
    68   29   62       1
    69   31   63       1
    70   32   64       1
    71   33   65       1
    72   34   66       1
    73   35   67       1
    74   37   68       1
    75   41   69       1
    76   41   70       1
    77   42   71       1
@<TRIPOS>SUBSTRUCTURE
     1 NAP201      1 GROUP             4 A     NAP     0 **** NAP A 201
