@<TRIPOS>MOLECULE
3gc9_B45_1_ligand
   62    66     1     0     0
SMALL
NO_CHARGES


@<TRIPOS>ATOM
     1 C6          28.0990    -8.1100    41.5270 C.ar         1 B45365   0.0000
     2 C21         26.5270    -9.3980    32.0790 C.ar         1 B45365   0.0000
     3 C22         26.4740   -10.0220    30.8510 C.ar         1 B45365   0.0000
     4 C1          27.7280    -9.3630    41.0870 C.ar         1 B45365   0.0000
     5 C5          28.6380    -7.2100    40.6340 C.ar         1 B45365   0.0000
     6 C17         25.4120    -8.5970    34.8990 C.ar         1 B45365   0.0000
     7 C19         26.4790    -8.1350    36.9740 C.ar         1 B45365   0.0000
     8 C24         26.0830   -12.1200    31.9160 C.ar         1 B45365   0.0000
     9 C20         26.3640   -10.1220    33.2410 C.ar         1 B45365   0.0000
    10 C16         26.4380    -9.4340    34.5180 C.ar         1 B45365   0.0000
    11 C18         25.4180    -7.9410    36.1150 C.ar         1 B45365   0.0000
    12 C13         27.4990    -9.6010    35.3890 C.ar         1 B45365   0.0000
    13 C14         27.5210    -8.9630    36.6170 C.ar         1 B45365   0.0000
    14 C3          28.4250    -8.8290    38.8620 C.ar         1 B45365   0.0000
    15 C23         26.2480   -11.3770    30.7780 C.ar         1 B45365   0.0000
    16 C2          27.8880    -9.7240    39.7650 C.ar         1 B45365   0.0000
    17 C4          28.7950    -7.5860    39.3170 C.ar         1 B45365   0.0000
    18 C25         26.1410   -11.4870    33.1340 C.ar         1 B45365   0.0000
    19 C10         29.6470   -10.0310    37.2220 C.2          1 B45365   0.0000
    20 C12         28.6300   -10.4860    34.9960 C.2          1 B45365   0.0000
    21 C29         24.6630    -5.6450    36.0550 C.3          1 B45365   0.0000
    22 C33         22.9420    -7.4300    35.9600 C.3          1 B45365   0.0000
    23 C30         23.6170    -4.6520    36.5070 C.3          1 B45365   0.0000
    24 C32         21.8580    -6.4000    36.2510 C.3          1 B45365   0.0000
    25 C28         24.2970    -7.0360    36.5260 C.3          1 B45365   0.0000
    26 C35         21.8480    -2.6610    35.3200 C.3          1 B45365   0.0000
    27 C36         20.6710    -3.7290    37.2040 C.3          1 B45365   0.0000
    28 C34         21.2720    -3.9640    35.8340 C.3          1 B45365   0.0000
    29 N11         29.6050   -10.6900    36.0230 N.2          1 B45365   0.0000
    30 N9          28.6160    -9.1580    37.4970 N.pl3        1 B45365   0.0000
    31 N31         22.3300    -5.0320    35.8620 N.4          1 B45365   1.0000
    32 O15         30.5630   -10.2210    38.0030 O.2          1 B45365   0.0000
    33 F27         26.1960   -11.9920    29.5930 F            1 B45365   0.0000
    34 CL8         27.4160   -11.2970    39.2450 Cl           1 B45365   0.0000
    35 CL7         29.4610    -6.5030    38.1820 Cl           1 B45365   0.0000
    36 CL26        25.9240   -12.5110    34.5110 Cl           1 B45365   0.0000
    37 H1          27.9778    -7.8566    42.4867 H            1 B45365   0.0000
    38 H2          26.6850    -8.4118    32.1275 H            1 B45365   0.0000
    39 H3          26.5998    -9.4900    30.0137 H            1 B45365   0.0000
    40 H4          27.3381   -10.0182    41.7341 H            1 B45365   0.0000
    41 H5          28.9115    -6.2970    40.9368 H            1 B45365   0.0000
    42 H6          24.6407    -8.4603    34.2774 H            1 B45365   0.0000
    43 H7          26.4924    -7.6725    37.8605 H            1 B45365   0.0000
    44 H8          25.9231   -13.1056    31.8617 H            1 B45365   0.0000
    45 H9          28.7021   -10.9030    34.0899 H            1 B45365   0.0000
    46 H10         25.5502    -5.3886    36.4386 H            1 B45365   0.0000
    47 H11         24.7168    -5.6373    35.0565 H            1 B45365   0.0000
    48 H12         23.0274    -7.5325    34.9689 H            1 B45365   0.0000
    49 H13         22.6692    -8.3035    36.3632 H            1 B45365   0.0000
    50 H14         23.8795    -3.7286    36.2271 H            1 B45365   0.0000
    51 H15         23.5228    -4.6846    37.5020 H            1 B45365   0.0000
    52 H16         21.6450    -6.4110    37.2280 H            1 B45365   0.0000
    53 H17         21.0365    -6.6276    35.7281 H            1 B45365   0.0000
    54 H18         24.2383    -7.0313    37.5243 H            1 B45365   0.0000
    55 H19         22.2473    -2.8071    34.4149 H            1 B45365   0.0000
    56 H20         21.1212    -1.9770    35.2572 H            1 B45365   0.0000
    57 H21         22.5558    -2.3385    35.9485 H            1 B45365   0.0000
    58 H22         20.2880    -4.5850    37.5513 H            1 B45365   0.0000
    59 H23         21.3814    -3.4041    37.8284 H            1 B45365   0.0000
    60 H24         19.9468    -3.0427    37.1370 H            1 B45365   0.0000
    61 H25         20.5436    -4.2553    35.2138 H            1 B45365   0.0000
    62 H26         22.5768    -5.1380    34.8987 H            1 B45365   0.0000
@<TRIPOS>BOND
     1    1    4      ar
     2    1    5      ar
     3    2    3      ar
     4    2    9      ar
     5    3   15      ar
     6    4   16      ar
     7    5   17      ar
     8    6   10      ar
     9    6   11      ar
    10    7   11      ar
    11    7   13      ar
    12    8   15      ar
    13    8   18      ar
    14    9   10       1
    15    9   18      ar
    16   10   12      ar
    17   11   25       1
    18   12   13      ar
    19   12   20       1
    20   13   30       1
    21   14   16      ar
    22   14   17      ar
    23   14   30       1
    24   15   33       1
    25   16   34       1
    26   17   35       1
    27   18   36       1
    28   19   29       1
    29   19   30       1
    30   19   32       2
    31   20   29       2
    32   21   23       1
    33   21   25       1
    34   22   24       1
    35   22   25       1
    36   23   31       1
    37   24   31       1
    38   26   28       1
    39   27   28       1
    40   28   31       1
    41    1   37       1
    42    2   38       1
    43    3   39       1
    44    4   40       1
    45    5   41       1
    46    6   42       1
    47    7   43       1
    48    8   44       1
    49   20   45       1
    50   21   46       1
    51   21   47       1
    52   22   48       1
    53   22   49       1
    54   23   50       1
    55   23   51       1
    56   24   52       1
    57   24   53       1
    58   25   54       1
    59   26   55       1
    60   26   56       1
    61   26   57       1
    62   27   58       1
    63   27   59       1
    64   27   60       1
    65   28   61       1
    66   31   62       1
@<TRIPOS>SUBSTRUCTURE
     1 B45365      1 GROUP             4 A     B45     0 **** B45 A 365
