@<TRIPOS>MOLECULE
5je2_SAH_2_ligand
   45    47     1     0     0
SMALL
NO_CHARGES


@<TRIPOS>ATOM
     1 N            0.6900    48.9760    21.5730 N.3          1 SAH301   0.0000
     2 CA           1.2850    49.8980    20.5430 C.3          1 SAH301   0.0000
     3 CB           0.3440    50.1030    19.3400 C.3          1 SAH301   0.0000
     4 CG          -1.0390    50.6370    19.7270 C.3          1 SAH301   0.0000
     5 SD          -2.0410    51.0270    18.2950 S.3          1 SAH301   0.0000
     6 C            1.6630    51.2150    21.1570 C.2          1 SAH301   0.0000
     7 O            2.6980    51.7980    20.7750 O.co2        1 SAH301   0.0000
     8 OXT          0.9430    51.6980    22.0480 O.co2        1 SAH301  -1.0000
     9 C5'         -3.1900    49.6750    18.2990 C.3          1 SAH301   0.0000
    10 C4'         -2.6430    48.4170    17.6240 C.3          1 SAH301   0.0000
    11 O4'         -3.5720    47.3480    17.8930 O.3          1 SAH301   0.0000
    12 C3'         -2.5760    48.5360    16.0970 C.3          1 SAH301   0.0000
    13 O3'         -1.2510    48.2950    15.5940 O.3          1 SAH301   0.0000
    14 C2'         -3.5680    47.4790    15.6110 C.3          1 SAH301   0.0000
    15 O2'         -3.2360    46.8550    14.3620 O.3          1 SAH301   0.0000
    16 C1'         -3.5600    46.4930    16.7540 C.3          1 SAH301   0.0000
    17 N9          -4.7480    45.6320    16.8220 N.pl3        1 SAH301   0.0000
    18 C8          -6.0410    46.0030    16.6710 C.2          1 SAH301   0.0000
    19 N7          -6.8730    44.9340    16.8210 N.2          1 SAH301   0.0000
    20 C5          -6.0890    43.8740    17.0910 C.ar         1 SAH301   0.0000
    21 C6          -6.3250    42.4550    17.3490 C.ar         1 SAH301   0.0000
    22 N6          -7.5860    41.9390    17.3460 N.pl3        1 SAH301   0.0000
    23 N1          -5.2440    41.6800    17.5670 N.ar         1 SAH301   0.0000
    24 C2          -3.9870    42.1730    17.5420 C.ar         1 SAH301   0.0000
    25 N3          -3.6810    43.4670    17.3180 N.ar         1 SAH301   0.0000
    26 C4          -4.7060    44.3330    17.0790 C.ar         1 SAH301   0.0000
    27 H1          -0.1684    49.3626    21.9102 H            1 SAH301   0.0000
    28 HA           2.1228    49.4711    20.2026 H            1 SAH301   0.0000
    29 HB1          0.2256    49.2241    18.8779 H            1 SAH301   0.0000
    30 HB2          0.7703    50.7547    18.7126 H            1 SAH301   0.0000
    31 HG1         -0.9223    51.4663    20.2735 H            1 SAH301   0.0000
    32 HG2         -1.5112    49.9432    20.2707 H            1 SAH301   0.0000
    33 H5'1        -4.0179    49.9602    17.8161 H            1 SAH301   0.0000
    34 H5'2        -3.4168    49.4536    19.2474 H            1 SAH301   0.0000
    35 H4'         -1.7412    48.1917    17.9927 H            1 SAH301   0.0000
    36 H3'         -2.8847    49.4444    15.8149 H            1 SAH301   0.0000
    37 H11         -0.9609    47.3722    15.8477 H            1 SAH301   0.0000
    38 H2'         -4.4766    47.8907    15.5401 H            1 SAH301   0.0000
    39 H13         -2.6756    46.0446    14.5328 H            1 SAH301   0.0000
    40 H1'         -2.7261    45.9413    16.7369 H            1 SAH301   0.0000
    41 H15         -6.3447    46.9355    16.4757 H            1 SAH301   0.0000
    42 H16         -7.7283    40.9654    17.5246 H            1 SAH301   0.0000
    43 H17         -8.3692    42.5339    17.1652 H            1 SAH301   0.0000
    44 H18         -3.2327    41.5358    17.7002 H            1 SAH301   0.0000
    45 H19          0.5135    48.0831    21.1588 H            1 SAH301   0.0000
@<TRIPOS>BOND
     1    1    2       1
     2    2    3       1
     3    2    6       1
     4    3    4       1
     5    4    5       1
     6    5    9       1
     7    6    7      ar
     8    6    8      ar
     9    9   10       1
    10   10   11       1
    11   10   12       1
    12   11   16       1
    13   12   13       1
    14   12   14       1
    15   14   15       1
    16   14   16       1
    17   16   17       1
    18   17   18       1
    19   17   26       1
    20   18   19       2
    21   19   20       1
    22   20   21      ar
    23   20   26      ar
    24   21   22       1
    25   21   23      ar
    26   23   24      ar
    27   24   25      ar
    28   25   26      ar
    29   24   44       1
    30    1   27       1
    31    2   28       1
    32    3   29       1
    33    3   30       1
    34    4   31       1
    35    4   32       1
    36    1   45       1
    37    9   33       1
    38    9   34       1
    39   10   35       1
    40   12   36       1
    41   13   37       1
    42   14   38       1
    43   15   39       1
    44   16   40       1
    45   18   41       1
    46   22   42       1
    47   22   43       1
@<TRIPOS>SUBSTRUCTURE
     1 SAH301      1 GROUP             4 B     SAH     0 **** SAH B 301
