@<TRIPOS>MOLECULE
3x04_GNP_1_ligand
   45    47     1     0     0
SMALL
NO_CHARGES


@<TRIPOS>ATOM
     1 PG          44.2850    65.1660    -9.3630 P.3          1 GNP501   0.0000
     2 O1G         44.1020    65.7890    -8.0030 O.co2        1 GNP501   0.0000
     3 O2G         44.2140    66.1340   -10.5200 O.co2        1 GNP501  -1.0000
     4 O3G         43.2790    64.0330    -9.4130 O.co2        1 GNP501  -1.0000
     5 N3B         45.7420    64.5190    -9.4260 N.3          1 GNP501   0.0000
     6 PB          46.0620    63.0490    -9.9570 P.3          1 GNP501   0.0000
     7 O1B         45.0750    62.6340   -10.9750 O.co2        1 GNP501   0.0000
     8 O2B         47.4760    63.0520   -10.3840 O.co2        1 GNP501  -1.0000
     9 O3A         45.9390    62.0710    -8.7850 O.3          1 GNP501   0.0000
    10 PA          46.7510    62.2150    -7.4960 P.3          1 GNP501   0.0000
    11 O1A         47.4560    60.9290    -7.2870 O.co2        1 GNP501   0.0000
    12 O2A         47.5940    63.4310    -7.5530 O.co2        1 GNP501  -1.0000
    13 O5'         45.6870    62.4160    -6.3270 O.3          1 GNP501   0.0000
    14 C5'         44.2530    62.4620    -6.6110 C.3          1 GNP501   0.0000
    15 C4'         43.2910    62.6720    -5.4300 C.3          1 GNP501   0.0000
    16 O4'         43.2100    61.4950    -4.5800 O.3          1 GNP501   0.0000
    17 C3'         43.5930    63.8110    -4.4600 C.3          1 GNP501   0.0000
    18 O3'         42.3740    64.3040    -3.8690 O.3          1 GNP501   0.0000
    19 C2'         44.4900    63.1240    -3.4320 C.3          1 GNP501   0.0000
    20 O2'         44.4720    63.8000    -2.1950 O.3          1 GNP501   0.0000
    21 C1'         43.7910    61.7710    -3.3110 C.3          1 GNP501   0.0000
    22 N9          44.6530    60.6490    -2.9510 N.pl3        1 GNP501   0.0000
    23 C8          45.8120    60.2310    -3.5640 C.2          1 GNP501   0.0000
    24 N7          46.3600    59.1760    -3.0190 N.2          1 GNP501   0.0000
    25 C5          45.4850    58.8660    -1.9710 C.2          1 GNP501   0.0000
    26 C6          45.5320    57.8190    -1.0100 C.2          1 GNP501   0.0000
    27 O6          46.3840    56.9250    -0.8750 O.2          1 GNP501   0.0000
    28 N1          44.4440    57.8850    -0.1470 N.pl3        1 GNP501   0.0000
    29 C2          43.4450    58.8180    -0.1920 C.2          1 GNP501   0.0000
    30 N2          42.4830    58.7030     0.7380 N.pl3        1 GNP501   0.0000
    31 N3          43.3890    59.8030    -1.0820 N.2          1 GNP501   0.0000
    32 C4          44.4390    59.7700    -1.9270 C.2          1 GNP501   0.0000
    33 H3B         46.0877    64.5460    -8.4880 H            1 GNP501   0.0000
    34 H5'1        44.0075    61.5948    -7.0443 H            1 GNP501   0.0000
    35 H5'2        44.1011    63.2114    -7.2554 H            1 GNP501   0.0000
    36 H4'         42.3797    62.8330    -5.8090 H            1 GNP501   0.0000
    37 H3'         44.0853    64.5484    -4.9225 H            1 GNP501   0.0000
    38 H6          42.4766    65.2753    -3.6546 H            1 GNP501   0.0000
    39 H2'         45.4234    63.0210    -3.7758 H            1 GNP501   0.0000
    40 H8          45.0678    63.3254    -1.5471 H            1 GNP501   0.0000
    41 H1'         43.0604    61.8460    -2.6323 H            1 GNP501   0.0000
    42 H10         46.2023    60.6949    -4.3593 H            1 GNP501   0.0000
    43 H11         44.3869    57.1895     0.5692 H            1 GNP501   0.0000
    44 H12         41.7253    59.3554     0.7569 H            1 GNP501   0.0000
    45 H13         42.5244    57.9650     1.4115 H            1 GNP501   0.0000
@<TRIPOS>BOND
     1    1    2      ar
     2    1    3      ar
     3    1    4      ar
     4    1    5       1
     5    5    6       1
     6    6    7      ar
     7    6    8      ar
     8    6    9       1
     9    9   10       1
    10   10   11      ar
    11   10   12      ar
    12   10   13       1
    13   13   14       1
    14   14   15       1
    15   15   16       1
    16   15   17       1
    17   16   21       1
    18   17   18       1
    19   17   19       1
    20   19   20       1
    21   19   21       1
    22   21   22       1
    23   22   23       1
    24   22   32       1
    25   23   24       2
    26   24   25       1
    27   25   26       1
    28   25   32       2
    29   26   27       2
    30   26   28       1
    31   28   29       1
    32   29   30       1
    33   29   31       2
    34   31   32       1
    35   30   45       1
    36   30   44       1
    37    5   33       1
    38   28   43       1
    39   23   42       1
    40   14   34       1
    41   14   35       1
    42   15   36       1
    43   17   37       1
    44   18   38       1
    45   19   39       1
    46   20   40       1
    47   21   41       1
@<TRIPOS>SUBSTRUCTURE
     1 GNP501      1 GROUP             4 A     GNP     0 **** GNP A 501
