@<TRIPOS>MOLECULE
4yai_NAI_1_ligand
   71    75     1     0     0
SMALL
NO_CHARGES


@<TRIPOS>ATOM
     1 PA          48.8840    54.7310    12.2020 P.3          1 NAI500   0.0000
     2 O1A         48.4890    53.7050    13.2170 O.co2        1 NAI500   0.0000
     3 O2A         50.2260    54.3960    11.5230 O.co2        1 NAI500  -1.0000
     4 O5B         48.9950    56.1620    12.8320 O.3          1 NAI500   0.0000
     5 C5B         48.0390    56.5440    13.7660 C.3          1 NAI500   0.0000
     6 C4B         48.6820    57.0270    14.9880 C.3          1 NAI500   0.0000
     7 O4B         47.5800    57.4880    15.8270 O.3          1 NAI500   0.0000
     8 C3B         49.4000    55.9770    15.7250 C.3          1 NAI500   0.0000
     9 O3B         50.7370    56.3620    16.0510 O.3          1 NAI500   0.0000
    10 C2B         48.6090    55.7200    16.9080 C.3          1 NAI500   0.0000
    11 O2B         49.4040    55.3380    18.0490 O.3          1 NAI500   0.0000
    12 C1B         47.8970    56.9700    17.1440 C.3          1 NAI500   0.0000
    13 N9A         46.7180    56.8040    17.9280 N.pl3        1 NAI500   0.0000
    14 C8A         45.7850    55.8130    17.8590 C.2          1 NAI500   0.0000
    15 N7A         44.8370    56.0130    18.7850 N.2          1 NAI500   0.0000
    16 C5A         45.1220    57.1440    19.4950 C.ar         1 NAI500   0.0000
    17 C6A         44.5350    57.8510    20.5510 C.ar         1 NAI500   0.0000
    18 N6A         43.3590    57.3930    21.1800 N.pl3        1 NAI500   0.0000
    19 N1A         45.1160    58.9940    21.0210 N.ar         1 NAI500   0.0000
    20 C2A         46.2530    59.4590    20.4680 C.ar         1 NAI500   0.0000
    21 N3A         46.8530    58.8080    19.4520 N.ar         1 NAI500   0.0000
    22 C4A         46.3290    57.6650    18.9480 C.ar         1 NAI500   0.0000
    23 O3          47.7390    54.6630    11.1210 O.3          1 NAI500   0.0000
    24 PN          47.3010    55.7400    10.0000 P.3          1 NAI500   0.0000
    25 O1N         48.3980    56.7320     9.6270 O.co2        1 NAI500   0.0000
    26 O2N         46.8550    54.9130     8.8010 O.co2        1 NAI500  -1.0000
    27 O5D         46.0280    56.4880    10.6500 O.3          1 NAI500   0.0000
    28 C5D         45.8730    57.9030    10.5420 C.3          1 NAI500   0.0000
    29 C4D         44.4760    58.2110    10.1660 C.3          1 NAI500   0.0000
    30 O4D         44.2990    57.8820     8.7440 O.3          1 NAI500   0.0000
    31 C3D         43.4490    57.4580    10.8980 C.3          1 NAI500   0.0000
    32 O3D         42.3970    58.3700    11.2890 O.3          1 NAI500   0.0000
    33 C2D         42.9160    56.4830     9.9630 C.3          1 NAI500   0.0000
    34 O2D         41.5760    56.0880    10.2680 O.3          1 NAI500   0.0000
    35 C1D         42.9880    57.1870     8.7050 C.3          1 NAI500   0.0000
    36 N1N         42.9840    56.4440     7.5090 N.pl3        1 NAI500   0.0000
    37 C2N         44.0510    55.6210     7.1970 C.2          1 NAI500   0.0000
    38 C3N         44.0540    54.9310     6.0000 C.2          1 NAI500   0.0000
    39 C7N         45.1970    54.0150     5.6620 C.2          1 NAI500   0.0000
    40 O7N         45.1437    53.2233     4.6726 O.2          1 NAI500   0.0000
    41 N7N         46.3944    54.0783     6.5188 N.am         1 NAI500   0.0000
    42 C4N         43.0050    55.0680     5.1080 C.3          1 NAI500   0.0000
    43 C5N         41.9520    55.9180     5.4160 C.2          1 NAI500   0.0000
    44 C6N         41.9590    56.6130     6.6130 C.2          1 NAI500   0.0000
    45 H5B1        47.4616    55.7579    13.9864 H            1 NAI500   0.0000
    46 H5B2        47.4750    57.2741    13.3801 H            1 NAI500   0.0000
    47 H4B         49.2984    57.7860    14.7782 H            1 NAI500   0.0000
    48 H3B         49.4275    55.1483    15.1660 H            1 NAI500   0.0000
    49 H5          50.7177    57.1832    16.6214 H            1 NAI500   0.0000
    50 H2B         47.9474    54.9966    16.7108 H            1 NAI500   0.0000
    51 H7          50.0467    56.0721    18.2683 H            1 NAI500   0.0000
    52 H1B         48.5089    57.6109    17.6075 H            1 NAI500   0.0000
    53 H8A         45.8048    55.0498    17.2132 H            1 NAI500   0.0000
    54 H6A1        42.9584    57.9157    21.9325 H            1 NAI500   0.0000
    55 H6A2        42.9256    56.5455    20.8735 H            1 NAI500   0.0000
    56 H2A         46.6594    60.3030    20.8180 H            1 NAI500   0.0000
    57 H5D1        46.4935    58.2551     9.8413 H            1 NAI500   0.0000
    58 H5D2        46.0852    58.3309    11.4206 H            1 NAI500   0.0000
    59 H4D         44.3139    59.1893    10.2948 H            1 NAI500   0.0000
    60 H3D         43.8426    57.0052    11.6980 H            1 NAI500   0.0000
    61 H17         42.7769    59.0852    11.8756 H            1 NAI500   0.0000
    62 H2D         43.5094    55.6785     9.9363 H            1 NAI500   0.0000
    63 H19         41.5484    55.6795    11.1803 H            1 NAI500   0.0000
    64 H1D         42.2572    57.8687     8.6692 H            1 NAI500   0.0000
    65 H2N         44.8159    55.5259     7.8341 H            1 NAI500   0.0000
    66 H7N1        47.1836    53.4976     6.3188 H            1 NAI500   0.0000
    67 H7N2        46.4178    54.7020     7.3001 H            1 NAI500   0.0000
    68 H4N1        42.6143    54.1569     4.9765 H            1 NAI500   0.0000
    69 H4N2        43.3964    55.3905     4.2461 H            1 NAI500   0.0000
    70 H5N         41.1916    56.0279     4.7759 H            1 NAI500   0.0000
    71 H6N         41.2118    57.2426     6.8261 H            1 NAI500   0.0000
@<TRIPOS>BOND
     1    1    2      ar
     2    1    3      ar
     3    1    4       1
     4    1   23       1
     5    4    5       1
     6    5    6       1
     7    6    7       1
     8    6    8       1
     9    7   12       1
    10    8    9       1
    11    8   10       1
    12   10   11       1
    13   10   12       1
    14   12   13       1
    15   13   14       1
    16   13   22       1
    17   14   15       2
    18   15   16       1
    19   16   17      ar
    20   16   22      ar
    21   17   18       1
    22   17   19      ar
    23   19   20      ar
    24   20   21      ar
    25   21   22      ar
    26   23   24       1
    27   24   25      ar
    28   24   26      ar
    29   24   27       1
    30   27   28       1
    31   28   29       1
    32   29   30       1
    33   29   31       1
    34   30   35       1
    35   31   32       1
    36   31   33       1
    37   33   34       1
    38   33   35       1
    39   35   36       1
    40   36   37       1
    41   36   44       1
    42   37   38       2
    43   38   39       1
    44   38   42       1
    45   39   40       2
    46   39   41      am
    47   42   43       1
    48   43   44       2
    49   44   71       1
    50    5   45       1
    51    5   46       1
    52    6   47       1
    53    8   48       1
    54    9   49       1
    55   10   50       1
    56   11   51       1
    57   12   52       1
    58   14   53       1
    59   18   54       1
    60   18   55       1
    61   20   56       1
    62   43   70       1
    63   28   57       1
    64   28   58       1
    65   29   59       1
    66   31   60       1
    67   32   61       1
    68   33   62       1
    69   34   63       1
    70   35   64       1
    71   37   65       1
    72   41   66       1
    73   41   67       1
    74   42   68       1
    75   42   69       1
@<TRIPOS>SUBSTRUCTURE
     1 NAI500      1 GROUP             4 A     NAI     0 **** NAI A 500
