@<TRIPOS>MOLECULE
4cla_CLM_1_ligand
   32    32     1     0     0
SMALL
NO_CHARGES


@<TRIPOS>ATOM
     1 C1           1.1300    17.3990    13.6210 C.3          1 CLM221   0.0000
     2 CL1         -0.2820    18.5360    13.4750 Cl           1 CLM221   0.0000
     3 CL2          1.4820    16.9710    12.0240 Cl           1 CLM221   0.0000
     4 C2           0.3500    16.0770    14.2250 C.2          1 CLM221   0.0000
     5 O2          -0.5370    15.4850    13.6510 O.2          1 CLM221   0.0000
     6 N2           0.6840    15.7500    15.4120 N.am         1 CLM221   0.0000
     7 C3           0.2410    14.6650    16.2810 C.3          1 CLM221   0.0000
     8 C4          -0.3260    15.3510    17.4870 C.3          1 CLM221   0.0000
     9 O4          -0.9690    14.4050    18.3660 O.3          1 CLM221   0.0000
    10 C5           1.4140    13.7600    16.5880 C.3          1 CLM221   0.0000
    11 O5           2.3240    14.5130    17.4270 O.3          1 CLM221   0.0000
    12 C6           1.9410    13.1890    15.2590 C.ar         1 CLM221   0.0000
    13 C7           1.2470    12.0370    14.7860 C.ar         1 CLM221   0.0000
    14 C8           1.5720    11.3780    13.6410 C.ar         1 CLM221   0.0000
    15 C9           2.6510    11.9050    13.0480 C.ar         1 CLM221   0.0000
    16 N9           3.2110    11.2580    11.8760 N.2          1 CLM221   1.0000
    17 O9A          2.7400    10.1710    11.5860 O.co2        1 CLM221   0.0000
    18 O9B          3.9990    11.8530    11.2700 O.co2        1 CLM221  -1.0000
    19 C10          3.3740    13.0820    13.3070 C.ar         1 CLM221   0.0000
    20 C11          2.9920    13.7100    14.5270 C.ar         1 CLM221   0.0000
    21 H1           1.9023    17.7325    14.1617 H            1 CLM221   0.0000
    22 H2           1.3751    16.3457    15.8213 H            1 CLM221   0.0000
    23 H3          -0.4774    14.1405    15.8240 H            1 CLM221   0.0000
    24 H4          -0.9971    16.0307    17.1911 H            1 CLM221   0.0000
    25 H5           0.4139    15.8066    17.9820 H            1 CLM221   0.0000
    26 H6          -0.3029    14.0570    19.0257 H            1 CLM221   0.0000
    27 H7           1.0693    12.9933    17.1297 H            1 CLM221   0.0000
    28 H8           2.4388    14.0414    18.3013 H            1 CLM221   0.0000
    29 H9           0.4783    11.6942    15.3260 H            1 CLM221   0.0000
    30 H10          1.0653    10.5931    13.2844 H            1 CLM221   0.0000
    31 H11          4.0821    13.4408    12.6988 H            1 CLM221   0.0000
    32 H12          3.4796    14.5206    14.8513 H            1 CLM221   0.0000
@<TRIPOS>BOND
     1    1    2       1
     2    1    3       1
     3    1    4       1
     4    4    5       2
     5    4    6      am
     6    6    7       1
     7    7    8       1
     8    7   10       1
     9    8    9       1
    10   10   11       1
    11   10   12       1
    12   12   13      ar
    13   12   20      ar
    14   13   14      ar
    15   14   15      ar
    16   15   16       1
    17   15   19      ar
    18   16   17      ar
    19   16   18      ar
    20   19   20      ar
    21    1   21       1
    22    6   22       1
    23    7   23       1
    24    8   24       1
    25    8   25       1
    26    9   26       1
    27   10   27       1
    28   11   28       1
    29   13   29       1
    30   14   30       1
    31   19   31       1
    32   20   32       1
@<TRIPOS>SUBSTRUCTURE
     1 CLM221      1 GROUP             4 A     CLM     0 **** CLM A 221
