@<TRIPOS>MOLECULE
3lnm_NAP_2_ligand
   73    77     1     0     0
SMALL
NO_CHARGES


@<TRIPOS>ATOM
     1 PA          18.0970    36.7000   220.5460 P.3          1 NAP1001   0.0000
     2 O1A         18.9830    36.7230   221.7310 O.co2        1 NAP1001   0.0000
     3 O2A         16.8350    35.9160   220.5530 O.co2        1 NAP1001  -1.0000
     4 O5B         19.0300    36.3070   219.3400 O.3          1 NAP1001   0.0000
     5 C5B         18.4270    36.2210   218.0240 C.3          1 NAP1001   0.0000
     6 C4B         19.5080    35.7960   217.0780 C.3          1 NAP1001   0.0000
     7 O4B         19.9460    34.4490   217.4890 O.3          1 NAP1001   0.0000
     8 C3B         19.0840    35.6660   215.6270 C.3          1 NAP1001   0.0000
     9 O3B         19.4590    36.8570   214.9150 O.3          1 NAP1001   0.0000
    10 C2B         19.8410    34.4420   215.1690 C.3          1 NAP1001   0.0000
    11 O2B         21.1620    34.7930   214.8230 O.3          1 NAP1001   0.0000
    12 C1B         19.8420    33.5530   216.3660 C.3          1 NAP1001   0.0000
    13 N9A         18.6580    32.6720   216.5330 N.pl3        1 NAP1001   0.0000
    14 C8A         17.3540    33.0100   216.8590 C.2          1 NAP1001   0.0000
    15 N7A         16.5260    31.9780   216.9320 N.2          1 NAP1001   0.0000
    16 C5A         17.3070    30.9190   216.6450 C.ar         1 NAP1001   0.0000
    17 C6A         16.9980    29.5310   216.5670 C.ar         1 NAP1001   0.0000
    18 N6A         15.7820    29.0470   216.7890 N.pl3        1 NAP1001   0.0000
    19 N1A         18.0410    28.7020   216.2440 N.ar         1 NAP1001   0.0000
    20 C2A         19.2980    29.1640   216.0120 C.ar         1 NAP1001   0.0000
    21 N3A         19.6950    30.4730   216.0650 N.ar         1 NAP1001   0.0000
    22 C4A         18.6400    31.3250   216.3910 C.ar         1 NAP1001   0.0000
    23 O3          17.7570    38.2290   220.1400 O.3          1 NAP1001   0.0000
    24 PN          18.4480    39.6260   219.8870 P.3          1 NAP1001   0.0000
    25 O1N         18.6340    39.8240   218.4240 O.co2        1 NAP1001   0.0000
    26 O2N         19.6720    39.6250   220.7510 O.co2        1 NAP1001  -1.0000
    27 O5D         17.4530    40.7030   220.5140 O.3          1 NAP1001   0.0000
    28 C5D         16.0740    40.8180   220.0780 C.3          1 NAP1001   0.0000
    29 C4D         15.6650    42.2570   219.9690 C.3          1 NAP1001   0.0000
    30 O4D         15.8300    42.9380   221.2500 O.3          1 NAP1001   0.0000
    31 C3D         16.4640    43.1420   219.0140 C.3          1 NAP1001   0.0000
    32 O3D         16.3030    42.8740   217.6620 O.3          1 NAP1001   0.0000
    33 C2D         16.0390    44.5030   219.5000 C.3          1 NAP1001   0.0000
    34 O2D         14.7560    44.8060   218.9560 O.3          1 NAP1001   0.0000
    35 C1D         16.0370    44.3110   221.0110 C.3          1 NAP1001   0.0000
    36 N1N         17.2990    44.7760   221.6730 N.ar         1 NAP1001   1.0000
    37 C2N         17.2040    45.8400   222.5220 C.ar         1 NAP1001   0.0000
    38 C3N         18.3060    46.3640   223.1780 C.ar         1 NAP1001   0.0000
    39 C7N         18.1920    47.5350   224.1240 C.2          1 NAP1001   0.0000
    40 O7N         19.1860    48.1970   224.3810 O.2          1 NAP1001   0.0000
    41 N7N         16.9680    47.7700   224.6420 N.am         1 NAP1001   0.0000
    42 C4N         19.6030    45.7670   222.9530 C.ar         1 NAP1001   0.0000
    43 C5N         19.7040    44.6660   222.0760 C.ar         1 NAP1001   0.0000
    44 C6N         18.5810    44.1700   221.4440 C.ar         1 NAP1001   0.0000
    45 P2B         22.0570    34.1050   213.6870 P.3          1 NAP1001   0.0000
    46 O1X         23.3470    33.7420   214.3420 O.co2        1 NAP1001   0.0000
    47 O2X         21.1950    32.9370   213.2440 O.co2        1 NAP1001  -1.0000
    48 O3X         22.1880    35.1780   212.6270 O.co2        1 NAP1001  -1.0000
    49 H5B1        18.0637    37.1124   217.7531 H            1 NAP1001   0.0000
    50 H5B2        17.6883    35.5470   218.0274 H            1 NAP1001   0.0000
    51 H4B         20.2775    36.4312   217.1445 H            1 NAP1001   0.0000
    52 H3B         18.0978    35.5137   215.5617 H            1 NAP1001   0.0000
    53 H5          20.0855    36.6184   214.1730 H            1 NAP1001   0.0000
    54 H2B         19.3763    34.0031   214.4000 H            1 NAP1001   0.0000
    55 H1B         20.6623    32.9818   216.3375 H            1 NAP1001   0.0000
    56 H8A         17.0629    33.9522   217.0249 H            1 NAP1001   0.0000
    57 H6A1        15.6155    28.0632   216.7219 H            1 NAP1001   0.0000
    58 H6A2        15.0325    29.6662   217.0233 H            1 NAP1001   0.0000
    59 H2A         19.9962    28.4862   215.7817 H            1 NAP1001   0.0000
    60 H5D1        15.4819    40.3587   220.7402 H            1 NAP1001   0.0000
    61 H5D2        15.9759    40.3812   219.1838 H            1 NAP1001   0.0000
    62 H4D         14.7003    42.2959   219.7086 H            1 NAP1001   0.0000
    63 H3D         17.4331    43.0293   219.2334 H            1 NAP1001   0.0000
    64 H16         16.9823    42.1996   217.3727 H            1 NAP1001   0.0000
    65 H2D         16.7078    45.1972   219.2337 H            1 NAP1001   0.0000
    66 H18         14.4643    45.7085   219.2728 H            1 NAP1001   0.0000
    67 H1D         15.2681    44.8212   221.3963 H            1 NAP1001   0.0000
    68 H2N         16.3078    46.2560   222.6760 H            1 NAP1001   0.0000
    69 H7N1        16.8308    48.5320   225.2748 H            1 NAP1001   0.0000
    70 H7N2        16.1984    47.1821   224.3930 H            1 NAP1001   0.0000
    71 H4N         20.4152    46.1281   223.4111 H            1 NAP1001   0.0000
    72 H5N         20.5947    44.2423   221.9112 H            1 NAP1001   0.0000
    73 H6N         18.6603    43.3878   220.8260 H            1 NAP1001   0.0000
@<TRIPOS>BOND
     1    1    2      ar
     2    1    3      ar
     3    1    4       1
     4    1   23       1
     5    4    5       1
     6    5    6       1
     7    6    7       1
     8    6    8       1
     9    7   12       1
    10    8    9       1
    11    8   10       1
    12   10   11       1
    13   10   12       1
    14   11   45       1
    15   12   13       1
    16   13   14       1
    17   13   22       1
    18   14   15       2
    19   15   16       1
    20   16   17      ar
    21   16   22      ar
    22   17   18       1
    23   17   19      ar
    24   19   20      ar
    25   20   21      ar
    26   21   22      ar
    27   23   24       1
    28   24   25      ar
    29   24   26      ar
    30   24   27       1
    31   27   28       1
    32   28   29       1
    33   29   30       1
    34   29   31       1
    35   30   35       1
    36   31   32       1
    37   31   33       1
    38   33   34       1
    39   33   35       1
    40   35   36       1
    41   36   37      ar
    42   36   44      ar
    43   37   38      ar
    44   38   39       1
    45   38   42      ar
    46   39   40       2
    47   39   41      am
    48   42   43      ar
    49   43   44      ar
    50   45   46      ar
    51   45   47      ar
    52   45   48      ar
    53   43   72       1
    54    5   49       1
    55    5   50       1
    56    6   51       1
    57    8   52       1
    58    9   53       1
    59   10   54       1
    60   12   55       1
    61   14   56       1
    62   18   57       1
    63   18   58       1
    64   20   59       1
    65   44   73       1
    66   28   60       1
    67   28   61       1
    68   29   62       1
    69   31   63       1
    70   32   64       1
    71   33   65       1
    72   34   66       1
    73   35   67       1
    74   37   68       1
    75   41   69       1
    76   41   70       1
    77   42   71       1
@<TRIPOS>SUBSTRUCTURE
     1 NAP1001     1 GROUP             4 C     NAP     0 **** NAP C1001
