@<TRIPOS>MOLECULE
./coach420/1v3s/ligand.pdb
 61 62 0 0 0
SMALL
GASTEIGER

@<TRIPOS>ATOM
      1  PG         0.4450    5.6490   -6.0070 P.3   200  ATP200      0.5373
      2  O1G       -0.8460    5.0310   -5.6250 O.3   200  ATP200     -0.1143
      3  O2G        0.2720    6.9190   -6.9870 O.2   200  ATP200     -0.2221
      4  O3G        1.5600    4.6620   -6.6070 O.3   200  ATP200     -0.1143
      5  PB         0.9440    7.8160   -4.3100 P.3   200  ATP200      0.2277
      6  O1B       -0.2200    8.4610   -4.9580 O.2   200  ATP200     -0.5168
      7  O2B        1.6050    8.2920   -3.0750 O.3   200  ATP200     -0.4368
      8  O3B        1.1640    6.2700   -4.7060 O.3   200  ATP200     -0.2258
      9  PA         3.4380    7.4930   -5.5110 P.3   200  ATP200      0.2189
     10  O1A        3.7030    6.8720   -6.8260 O.2   200  ATP200     -0.5170
     11  O2A        3.9850    7.0250   -4.2170 O.3   200  ATP200     -0.4371
     12  O3A        2.0680    8.3250   -5.3490 O.3   200  ATP200     -0.2700
     13  O5'        4.3720    8.7950   -5.6790 O.3   200  ATP200     -0.3112
     14  C5'        5.7440    8.6540   -6.0630 C.3   200  ATP200      0.1813
     15  C4'        6.4230   10.0190   -6.2190 C.3   200  ATP200      0.1801
     16  O4'        5.6740   10.8750   -7.0970 O.3   200  ATP200     -0.3306
     17  C3'        6.4920   10.7740   -4.8920 C.3   200  ATP200      0.2161
     18  O3'        7.6510   10.3330   -4.1800 O.3   200  ATP200     -0.2175
     19  C2'        6.7340   12.1880   -5.4170 C.3   200  ATP200      0.2337
     20  O2'        8.0840   12.3420   -5.8660 O.3   200  ATP200     -0.2155
     21  C1'        5.7820   12.2280   -6.6150 C.3   200  ATP200      0.2409
     22  N9         4.4270   12.6870   -6.2270 N.ar  200  ATP200     -0.2693
     23  C8         3.3770   11.9150   -5.9550 C.ar  200  ATP200      0.1816
     24  N7         2.3010   12.6740   -5.7540 N.ar  200  ATP200     -0.2193
     25  C5         2.6700   13.9430   -5.8950 C.ar  200  ATP200      0.1518
     26  C6         2.0110   15.1640   -5.8140 C.ar  200  ATP200      0.1919
     27  N6         0.7020   15.2070   -5.5820 N.pl3 200  ATP200     -0.1054
     28  N1         2.7060   16.2960   -6.0050 N.ar  200  ATP200     -0.2040
     29  C2         4.0020   16.2710   -6.2710 C.ar  200  ATP200      0.2016
     30  N3         4.6580   15.1260   -6.3610 N.ar  200  ATP200     -0.2048
     31  C4         4.0280   13.9550   -6.1840 C.ar  200  ATP200      0.1692
     32  O1G       16.5520   20.8260  -32.8180 O.3   400  ATP400      0.0000
     33  O2G       15.8770   20.2330  -30.3990 O.3   400  ATP400      0.0000
     34  O3G       15.2530   22.5910  -31.3750 O.3   400  ATP400      0.0000
     35  PB        18.8750   21.0160  -30.4700 P.3   400  ATP400      0.5373
     36  O1B       18.6620   19.5930  -30.8210 O.3   400  ATP400     -0.1143
     37  O2B       20.1910   21.6470  -30.2300 O.3   400  ATP400     -0.1143
     38  O3B       17.6440   21.9850  -30.8460 O.2   400  ATP400     -0.2221
     39  PA        18.3180   22.2390  -28.0210 P.3   400  ATP400      0.2231
     40  O1A       16.9820   22.8490  -27.8430 O.3   400  ATP400     -0.4370
     41  O2A       19.6060   22.9540  -27.8780 O.2   400  ATP400     -0.5169
     42  O3A       18.4140   20.9120  -28.9300 O.3   400  ATP400     -0.2261
     43  O5'       18.3360   21.4010  -26.6450 O.3   400  ATP400     -0.3111
     44  C5'       19.2650   21.6980  -25.5980 C.3   400  ATP400      0.1813
     45  C4'       18.6930   21.2890  -24.2380 C.3   400  ATP400      0.1801
     46  O4'       17.4280   21.9220  -23.9820 O.3   400  ATP400     -0.3306
     47  C3'       18.4070   19.7900  -24.1610 C.3   400  ATP400      0.2161
     48  O3'       19.6180   19.1030  -23.8350 O.3   400  ATP400     -0.2175
     49  C2'       17.4840   19.7930  -22.9450 C.3   400  ATP400      0.2337
     50  O2'       18.2330   20.0420  -21.7520 O.3   400  ATP400     -0.2155
     51  C1'       16.5920   20.9950  -23.2630 C.3   400  ATP400      0.2409
     52  N9        15.4720   20.6190  -24.1570 N.ar  400  ATP400     -0.2693
     53  C8        15.5000   20.6090  -25.4880 C.ar  400  ATP400      0.1816
     54  N7        14.3050   20.2640  -25.9620 N.ar  400  ATP400     -0.2193
     55  C5        13.5040   20.0510  -24.9230 C.ar  400  ATP400      0.1518
     56  C6        12.1740   19.6740  -24.7810 C.ar  400  ATP400      0.1919
     57  N6        11.4160   19.4540  -25.8520 N.pl3 400  ATP400     -0.1054
     58  N1        11.6620   19.5380  -23.5490 N.ar  400  ATP400     -0.2040
     59  C2        12.3980   19.7550  -22.4710 C.ar  400  ATP400      0.2016
     60  N3        13.6660   20.1170  -22.5710 N.ar  400  ATP400     -0.2048
     61  C4        14.2470   20.2730  -23.7700 C.ar  400  ATP400      0.1692
@<TRIPOS>BOND
     1     1     3    2
     2     1     4    1
     3     1     2    1
     4     1     8    1
     5     5    12    1
     6     5     6    2
     7     5     8    1
     8     5     7    1
     9     9    10    2
    10     9    13    1
    11     9    12    1
    12     9    11    1
    13    13    14    1
    14    14    15    1
    15    15    16    1
    16    15    17    1
    17    16    21    1
    18    17    19    1
    19    17    18    1
    20    19    21    1
    21    19    20    1
    22    21    22    1
    23    22    31   ar
    24    22    23   ar
    25    23    24   ar
    26    24    25   ar
    27    25    31   ar
    28    25    26   ar
    29    26    28   ar
    30    26    27    1
    31    28    29   ar
    32    29    30   ar
    33    30    31   ar
    34    35    38    2
    35    35    36    1
    36    35    37    1
    37    35    42    1
    38    39    42    1
    39    39    41    2
    40    39    40    1
    41    39    43    1
    42    43    44    1
    43    44    45    1
    44    45    47    1
    45    45    46    1
    46    46    51    1
    47    47    48    1
    48    47    49    1
    49    49    51    1
    50    49    50    1
    51    51    52    1
    52    52    53   ar
    53    52    61   ar
    54    53    54   ar
    55    54    55   ar
    56    55    56   ar
    57    55    61   ar
    58    56    57    1
    59    56    58   ar
    60    58    59   ar
    61    59    60   ar
    62    60    61   ar
