@<TRIPOS>MOLECULE
1hdo_NAP_1_ligand
   73    77     1     0     0
SMALL
NO_CHARGES


@<TRIPOS>ATOM
     1 PA          24.8670    -4.9480     7.0710 P.3          1 NAP500   0.0000
     2 O1A         24.9860    -6.2150     7.6720 O.co2        1 NAP500   0.0000
     3 O2A         25.0000    -4.6410     5.5970 O.co2        1 NAP500  -1.0000
     4 O5B         25.9180    -3.9640     7.7650 O.3          1 NAP500   0.0000
     5 C5B         26.2890    -4.2110     9.1370 C.3          1 NAP500   0.0000
     6 C4B         26.9590    -2.8610     9.5310 C.3          1 NAP500   0.0000
     7 O4B         27.4280    -3.0770    10.9280 O.3          1 NAP500   0.0000
     8 C3B         28.2900    -2.6050     8.7710 C.3          1 NAP500   0.0000
     9 O3B         28.4240    -1.1880     8.7330 O.3          1 NAP500   0.0000
    10 C2B         29.3380    -3.2260     9.6730 C.3          1 NAP500   0.0000
    11 O2B         30.6380    -2.6790     9.5230 O.3          1 NAP500   0.0000
    12 C1B         28.7910    -2.7630    11.0470 C.3          1 NAP500   0.0000
    13 N9A         29.4330    -3.5340    12.0810 N.pl3        1 NAP500   0.0000
    14 C8A         29.4030    -4.8800    12.3450 C.2          1 NAP500   0.0000
    15 N7A         30.1890    -5.2490    13.3380 N.2          1 NAP500   0.0000
    16 C5A         30.6930    -4.0390    13.8030 C.ar         1 NAP500   0.0000
    17 C6A         31.5820    -3.7980    14.8420 C.ar         1 NAP500   0.0000
    18 N6A         32.1280    -4.7050    15.6770 N.pl3        1 NAP500   0.0000
    19 N1A         31.9220    -2.4760    15.0670 N.ar         1 NAP500   0.0000
    20 C2A         31.4010    -1.4630    14.2720 C.ar         1 NAP500   0.0000
    21 N3A         30.5480    -1.6730    13.2200 N.ar         1 NAP500   0.0000
    22 C4A         30.2160    -2.9820    13.0300 C.ar         1 NAP500   0.0000
    23 O3          23.5000    -4.2940     7.4940 O.3          1 NAP500   0.0000
    24 PN          22.1060    -4.1990     6.7640 P.3          1 NAP500   0.0000
    25 O1N         22.0120    -5.2240     5.7090 O.co2        1 NAP500   0.0000
    26 O2N         21.9020    -2.7850     6.3930 O.co2        1 NAP500  -1.0000
    27 O5D         21.1140    -4.6480     7.9100 O.3          1 NAP500   0.0000
    28 C5D         20.7860    -3.7130     8.9870 C.3          1 NAP500   0.0000
    29 C4D         20.1250    -4.5180    10.0750 C.3          1 NAP500   0.0000
    30 O4D         18.8570    -4.9880     9.5860 O.3          1 NAP500   0.0000
    31 C3D         20.9050    -5.8050    10.4880 C.3          1 NAP500   0.0000
    32 O3D         20.8660    -5.9760    11.9120 O.3          1 NAP500   0.0000
    33 C2D         20.1330    -6.9130     9.7870 C.3          1 NAP500   0.0000
    34 O2D         20.2160    -8.1440    10.4760 O.3          1 NAP500   0.0000
    35 C1D         18.7450    -6.4040     9.8830 C.3          1 NAP500   0.0000
    36 N1N         17.8360    -6.8670     8.8280 N.ar         1 NAP500   1.0000
    37 C2N         18.2660    -7.3150     7.5750 C.ar         1 NAP500   0.0000
    38 C3N         17.3110    -7.7300     6.6750 C.ar         1 NAP500   0.0000
    39 C7N         17.7530    -8.1830     5.2970 C.2          1 NAP500   0.0000
    40 O7N         16.8720    -8.3260     4.4870 O.2          1 NAP500   0.0000
    41 N7N         19.0140    -8.2050     4.9730 N.am         1 NAP500   0.0000
    42 C4N         15.8990    -7.6810     6.9730 C.ar         1 NAP500   0.0000
    43 C5N         15.5240    -7.1490     8.2180 C.ar         1 NAP500   0.0000
    44 C6N         16.4820    -6.8170     9.1940 C.ar         1 NAP500   0.0000
    45 P2B         31.6690    -3.1500     8.3530 P.3          1 NAP500   0.0000
    46 O1X         31.2970    -2.3600     7.0920 O.co2        1 NAP500   0.0000
    47 O2X         32.9620    -2.6970     8.9510 O.co2        1 NAP500  -1.0000
    48 O3X         31.4880    -4.6410     8.1640 O.co2        1 NAP500  -1.0000
    49 H5B1        26.9333    -4.9724     9.2090 H            1 NAP500   0.0000
    50 H5B2        25.4866    -4.3987     9.7035 H            1 NAP500   0.0000
    51 H4B         26.3271    -2.0893     9.4587 H            1 NAP500   0.0000
    52 H3B         28.2885    -3.0102     7.8568 H            1 NAP500   0.0000
    53 H5          29.2675    -0.9457     8.2536 H            1 NAP500   0.0000
    54 H2B         29.3464    -4.2230     9.5964 H            1 NAP500   0.0000
    55 H1B         28.9293    -1.7821    11.1835 H            1 NAP500   0.0000
    56 H8A         28.8361    -5.5236    11.8308 H            1 NAP500   0.0000
    57 H6A1        32.7604    -4.4087    16.3928 H            1 NAP500   0.0000
    58 H6A2        31.9006    -5.6740    15.5805 H            1 NAP500   0.0000
    59 H2A         31.6649    -0.5212    14.4804 H            1 NAP500   0.0000
    60 H5D1        20.1610    -3.0078     8.6523 H            1 NAP500   0.0000
    61 H5D2        21.6189    -3.2825     9.3348 H            1 NAP500   0.0000
    62 H4D         19.9812    -3.9407    10.8788 H            1 NAP500   0.0000
    63 H3D         21.8492    -5.7683    10.1606 H            1 NAP500   0.0000
    64 H16         21.6482    -5.5097    12.3253 H            1 NAP500   0.0000
    65 H2D         20.4200    -7.0095     8.8339 H            1 NAP500   0.0000
    66 H18         21.1732    -8.4264    10.5398 H            1 NAP500   0.0000
    67 H1D         18.3598    -6.5585    10.7928 H            1 NAP500   0.0000
    68 H2N         19.2378    -7.3333     7.3401 H            1 NAP500   0.0000
    69 H7N1        19.2906    -8.5062     4.0604 H            1 NAP500   0.0000
    70 H7N2        19.7058    -7.9207     5.6368 H            1 NAP500   0.0000
    71 H4N         15.2169    -8.0117     6.3208 H            1 NAP500   0.0000
    72 H5N         14.5546    -7.0029     8.4151 H            1 NAP500   0.0000
    73 H6N         16.2068    -6.5539    10.1187 H            1 NAP500   0.0000
@<TRIPOS>BOND
     1    1    2      ar
     2    1    3      ar
     3    1    4       1
     4    1   23       1
     5    4    5       1
     6    5    6       1
     7    6    7       1
     8    6    8       1
     9    7   12       1
    10    8    9       1
    11    8   10       1
    12   10   11       1
    13   10   12       1
    14   11   45       1
    15   12   13       1
    16   13   14       1
    17   13   22       1
    18   14   15       2
    19   15   16       1
    20   16   17      ar
    21   16   22      ar
    22   17   18       1
    23   17   19      ar
    24   19   20      ar
    25   20   21      ar
    26   21   22      ar
    27   23   24       1
    28   24   25      ar
    29   24   26      ar
    30   24   27       1
    31   27   28       1
    32   28   29       1
    33   29   30       1
    34   29   31       1
    35   30   35       1
    36   31   32       1
    37   31   33       1
    38   33   34       1
    39   33   35       1
    40   35   36       1
    41   36   37      ar
    42   36   44      ar
    43   37   38      ar
    44   38   39       1
    45   38   42      ar
    46   39   40       2
    47   39   41      am
    48   42   43      ar
    49   43   44      ar
    50   45   46      ar
    51   45   47      ar
    52   45   48      ar
    53   43   72       1
    54    5   49       1
    55    5   50       1
    56    6   51       1
    57    8   52       1
    58    9   53       1
    59   10   54       1
    60   12   55       1
    61   14   56       1
    62   18   57       1
    63   18   58       1
    64   20   59       1
    65   44   73       1
    66   28   60       1
    67   28   61       1
    68   29   62       1
    69   31   63       1
    70   32   64       1
    71   33   65       1
    72   34   66       1
    73   35   67       1
    74   37   68       1
    75   41   69       1
    76   41   70       1
    77   42   71       1
@<TRIPOS>SUBSTRUCTURE
     1 NAP500      1 GROUP             4 A     NAP     0 **** NAP A 500
