@<TRIPOS>MOLECULE
4z9r_NAD_2_ligand
   70    74     1     0     0
SMALL
NO_CHARGES


@<TRIPOS>ATOM
     1 PA          24.2050    58.7010   -33.7210 P.3          1 NAD601   0.0000
     2 O1A         25.4140    58.0150   -34.2530 O.co2        1 NAD601   0.0000
     3 O2A         22.8830    58.6300   -34.4160 O.co2        1 NAD601  -1.0000
     4 O5B         24.5930    60.2170   -33.5160 O.3          1 NAD601   0.0000
     5 C5B         23.8330    60.9200   -32.5530 C.3          1 NAD601   0.0000
     6 C4B         23.8500    62.4320   -32.6610 C.3          1 NAD601   0.0000
     7 O4B         24.6300    62.8330   -31.5690 O.3          1 NAD601   0.0000
     8 C3B         24.5870    63.0040   -33.8320 C.3          1 NAD601   0.0000
     9 O3B         23.6710    63.3600   -34.8640 O.3          1 NAD601   0.0000
    10 C2B         25.2630    64.2150   -33.2560 C.3          1 NAD601   0.0000
    11 O2B         24.3450    65.2670   -33.1510 O.3          1 NAD601   0.0000
    12 C1B         25.5180    63.8800   -31.8330 C.3          1 NAD601   0.0000
    13 N9A         26.8880    63.4240   -31.5890 N.pl3        1 NAD601   0.0000
    14 C8A         27.3100    62.1630   -31.5180 C.2          1 NAD601   0.0000
    15 N7A         28.6190    62.1310   -31.2560 N.2          1 NAD601   0.0000
    16 C5A         29.0340    63.3970   -31.1520 C.ar         1 NAD601   0.0000
    17 C6A         30.2950    64.0990   -30.9090 C.ar         1 NAD601   0.0000
    18 N6A         31.4010    63.3850   -30.7210 N.pl3        1 NAD601   0.0000
    19 N1A         30.3260    65.4380   -30.8850 N.ar         1 NAD601   0.0000
    20 C2A         29.2350    66.1530   -31.0900 C.ar         1 NAD601   0.0000
    21 N3A         28.0590    65.5830   -31.3250 N.ar         1 NAD601   0.0000
    22 C4A         27.8930    64.2480   -31.3630 C.ar         1 NAD601   0.0000
    23 O3          24.0150    58.2450   -32.2240 O.3          1 NAD601   0.0000
    24 PN          23.0910    57.0310   -31.8570 P.3          1 NAD601   0.0000
    25 O1N         21.7200    57.5390   -31.6970 O.co2        1 NAD601   0.0000
    26 O2N         23.7160    56.3960   -30.7020 O.co2        1 NAD601  -1.0000
    27 O5D         23.2440    56.1510   -33.1480 O.3          1 NAD601   0.0000
    28 C5D         23.1420    54.7490   -33.0190 C.3          1 NAD601   0.0000
    29 C4D         22.1420    54.1880   -33.9950 C.3          1 NAD601   0.0000
    30 O4D         21.4550    53.0960   -33.4250 O.3          1 NAD601   0.0000
    31 C3D         21.0720    55.1430   -34.3780 C.3          1 NAD601   0.0000
    32 O3D         20.9940    54.9030   -35.7580 O.3          1 NAD601   0.0000
    33 C2D         19.8540    54.6420   -33.6820 C.3          1 NAD601   0.0000
    34 O2D         18.7520    55.0090   -34.4800 O.3          1 NAD601   0.0000
    35 C1D         20.0690    53.1510   -33.6070 C.3          1 NAD601   0.0000
    36 N1N         19.4460    52.5410   -32.4400 N.ar         1 NAD601   1.0000
    37 C2N         18.3620    51.8010   -32.6110 C.ar         1 NAD601   0.0000
    38 C3N         17.7360    51.2420   -31.5130 C.ar         1 NAD601   0.0000
    39 C7N         16.5170    50.4230   -31.7490 C.2          1 NAD601   0.0000
    40 O7N         16.0550    50.3390   -32.8570 O.2          1 NAD601   0.0000
    41 N7N         15.9590    49.7830   -30.7650 N.am         1 NAD601   0.0000
    42 C4N         18.2620    51.4340   -30.2340 C.ar         1 NAD601   0.0000
    43 C5N         19.3900    52.2060   -30.0660 C.ar         1 NAD601   0.0000
    44 C6N         19.9530    52.7400   -31.2060 C.ar         1 NAD601   0.0000
    45 H5B1        24.1836    60.6747   -31.6492 H            1 NAD601   0.0000
    46 H5B2        22.8829    60.6189   -32.6350 H            1 NAD601   0.0000
    47 H4B         22.9252    62.8075   -32.5997 H            1 NAD601   0.0000
    48 H3B         25.2645    62.3524   -34.1731 H            1 NAD601   0.0000
    49 H5          24.1744    63.7404   -35.6398 H            1 NAD601   0.0000
    50 H2B         26.0934    64.4703   -33.7512 H            1 NAD601   0.0000
    51 H7          24.8008    66.0700   -32.7671 H            1 NAD601   0.0000
    52 H1B         25.3074    64.6655   -31.2510 H            1 NAD601   0.0000
    53 H8A         26.7309    61.3573   -31.6427 H            1 NAD601   0.0000
    54 H6A1        32.2720    63.8470   -30.5536 H            1 NAD601   0.0000
    55 H6A2        31.3617    62.3861   -30.7470 H            1 NAD601   0.0000
    56 H2A         29.2961    67.1509   -31.0677 H            1 NAD601   0.0000
    57 H5D1        22.8508    54.5266   -32.0885 H            1 NAD601   0.0000
    58 H5D2        24.0367    54.3385   -33.1954 H            1 NAD601   0.0000
    59 H4D         22.6208    53.8825   -34.8180 H            1 NAD601   0.0000
    60 H3D         21.2919    56.0925   -34.1544 H            1 NAD601   0.0000
    61 H17         20.2939    55.4932   -36.1599 H            1 NAD601   0.0000
    62 H2D         19.7786    55.0376   -32.7667 H            1 NAD601   0.0000
    63 H19         18.4236    55.9112   -34.2003 H            1 NAD601   0.0000
    64 H1D         19.7906    52.6960   -34.4529 H            1 NAD601   0.0000
    65 H2N         17.9980    51.6472   -33.5296 H            1 NAD601   0.0000
    66 H7N1        15.1395    49.2332   -30.9269 H            1 NAD601   0.0000
    67 H7N2        16.3491    49.8404   -29.8460 H            1 NAD601   0.0000
    68 H4N         17.8208    51.0120   -29.4420 H            1 NAD601   0.0000
    69 H5N         19.7819    52.3714   -29.1610 H            1 NAD601   0.0000
    70 H6N         20.7756    53.3010   -31.1135 H            1 NAD601   0.0000
@<TRIPOS>BOND
     1    1    2      ar
     2    1    3      ar
     3    1    4       1
     4    1   23       1
     5    4    5       1
     6    5    6       1
     7    6    7       1
     8    6    8       1
     9    7   12       1
    10    8    9       1
    11    8   10       1
    12   10   11       1
    13   10   12       1
    14   12   13       1
    15   13   14       1
    16   13   22       1
    17   14   15       2
    18   15   16       1
    19   16   17      ar
    20   16   22      ar
    21   17   18       1
    22   17   19      ar
    23   19   20      ar
    24   20   21      ar
    25   21   22      ar
    26   23   24       1
    27   24   25      ar
    28   24   26      ar
    29   24   27       1
    30   27   28       1
    31   28   29       1
    32   29   30       1
    33   29   31       1
    34   30   35       1
    35   31   32       1
    36   31   33       1
    37   33   34       1
    38   33   35       1
    39   35   36       1
    40   36   37      ar
    41   36   44      ar
    42   37   38      ar
    43   38   39       1
    44   38   42      ar
    45   39   40       2
    46   39   41      am
    47   42   43      ar
    48   43   44      ar
    49   44   70       1
    50    5   45       1
    51    5   46       1
    52    6   47       1
    53    8   48       1
    54    9   49       1
    55   10   50       1
    56   11   51       1
    57   12   52       1
    58   14   53       1
    59   18   54       1
    60   18   55       1
    61   20   56       1
    62   43   69       1
    63   28   57       1
    64   28   58       1
    65   29   59       1
    66   31   60       1
    67   32   61       1
    68   33   62       1
    69   34   63       1
    70   35   64       1
    71   37   65       1
    72   41   66       1
    73   41   67       1
    74   42   68       1
@<TRIPOS>SUBSTRUCTURE
     1 NAD601      1 GROUP             4 B     NAD     0 **** NAD B 601
