@<TRIPOS>MOLECULE
3b8x_G4M_1_ligand
   85    89     1     0     0
SMALL
NO_CHARGES


@<TRIPOS>ATOM
     1 OP3         69.9700    51.4020     5.3990 O.co2        1 G4M500   0.0000
     2 PL          68.4570    51.5980     4.9120 P.3          1 G4M500   0.0000
     3 OP1         67.4370    51.3360     6.0820 O.co2        1 G4M500  -1.0000
     4 OP2         68.1980    53.0450     4.2680 O.co2        1 G4M500  -1.0000
     5 OP4         68.1350    50.6140     3.6830 O.3          1 G4M500   0.0000
     6 C5B         68.0670    49.2660     4.1050 C.3          1 G4M500   0.0000
     7 C5L         68.4950    48.3400     2.9630 C.2          1 G4M500   0.0000
     8 C6L         67.5680    47.5050     2.3500 C.2          1 G4M500   0.0000
     9 N1L         67.8930    46.6580     1.3610 N.pl3        1 G4M500   0.0000
    10 C2L         69.1480    46.4840     0.9950 C.2          1 G4M500   0.0000
    11 C2A         69.4320    45.4250    -0.0660 C.3          1 G4M500   0.0000
    12 C3L         70.1700    47.2710     1.5740 C.2          1 G4M500   0.0000
    13 O3L         71.4670    47.0960     1.2200 O.3          1 G4M500   0.0000
    14 C4L         69.8370    48.2230     2.5780 C.2          1 G4M500   0.0000
    15 C4A         70.8290    48.9740     3.2240 C.2          1 G4M500   0.0000
    16 N4A         72.0990    48.8280     2.8630 N.pl3        1 G4M500   0.0000
    17 C4G         73.0800    49.6640     3.3710 C.3          1 G4M500   0.0000
    18 C5G         74.3780    48.9010     3.6510 C.3          1 G4M500   0.0000
    19 C6G         74.8090    48.1760     2.3760 C.3          1 G4M500   0.0000
    20 O5G         75.3800    49.8600     3.9910 O.3          1 G4M500   0.0000
    21 C3G         72.6250    50.4020     4.6400 C.3          1 G4M500   0.0000
    22 O3G         72.4970    51.8030     4.3380 O.3          1 G4M500   0.0000
    23 C2G         73.6420    50.1590     5.7840 C.3          1 G4M500   0.0000
    24 O2G         73.3380    50.9990     6.9170 O.3          1 G4M500   0.0000
    25 C1G         75.1130    50.3600     5.3180 C.3          1 G4M500   0.0000
    26 O1G         76.0110    49.6950     6.2240 O.3          1 G4M500   0.0000
    27 P2          77.1690    50.7780     6.3930 P.3          1 G4M500   0.0000
    28 O3P         77.7980    51.2160     4.9750 O.co2        1 G4M500   0.0000
    29 O4P         78.3230    50.0680     7.2460 O.co2        1 G4M500  -1.0000
    30 OPP         76.5310    52.0670     7.1340 O.3          1 G4M500   0.0000
    31 P           77.6660    52.7900     8.0390 P.3          1 G4M500   0.0000
    32 O1P         78.8950    51.8340     8.4600 O.co2        1 G4M500   0.0000
    33 O2P         76.9260    53.2640     9.3890 O.co2        1 G4M500  -1.0000
    34 O5'         78.2160    54.1360     7.3020 O.3          1 G4M500   0.0000
    35 C5'         79.0070    53.8190     6.1580 C.3          1 G4M500   0.0000
    36 C4'         80.2640    54.7000     6.1300 C.3          1 G4M500   0.0000
    37 O4'         79.9260    56.1130     6.0030 O.3          1 G4M500   0.0000
    38 C3'         81.0650    54.5490     7.4590 C.3          1 G4M500   0.0000
    39 O3'         82.4750    54.6270     7.2350 O.3          1 G4M500   0.0000
    40 C2'         80.5430    55.7260     8.3130 C.3          1 G4M500   0.0000
    41 O2'         81.5790    56.2350     9.1670 O.3          1 G4M500   0.0000
    42 C1'         80.2170    56.7820     7.2470 C.3          1 G4M500   0.0000
    43 N9          79.0870    57.6040     7.6760 N.pl3        1 G4M500   0.0000
    44 C8          77.8170    57.1630     7.9160 C.2          1 G4M500   0.0000
    45 N7          77.0880    58.1910     8.2710 N.2          1 G4M500   0.0000
    46 C4          79.1450    58.9390     7.8900 C.2          1 G4M500   0.0000
    47 C5          77.8550    59.3210     8.2670 C.2          1 G4M500   0.0000
    48 C6          77.6200    60.6910     8.5320 C.2          1 G4M500   0.0000
    49 O6          76.5180    61.0980     8.8320 O.2          1 G4M500   0.0000
    50 N3          80.1100    59.8430     7.8000 N.2          1 G4M500   0.0000
    51 C2          79.8800    61.1070     8.0580 C.2          1 G4M500   0.0000
    52 N1          78.6480    61.5510     8.4170 N.pl3        1 G4M500   0.0000
    53 N2          80.9020    62.0100     7.9430 N.pl3        1 G4M500   0.0000
    54 H5B1        67.1283    49.0495     4.3733 H            1 G4M500   0.0000
    55 H5B2        68.6763    49.1321     4.8865 H            1 G4M500   0.0000
    56 H6L         66.6176    47.5368     2.6594 H            1 G4M500   0.0000
    57 H1L         67.1703    46.1495     0.8930 H            1 G4M500   0.0000
    58 H2A1        70.4142    45.3940    -0.2515 H            1 G4M500   0.0000
    59 H2A2        69.1268    44.5319     0.2644 H            1 G4M500   0.0000
    60 H2A3        68.9411    45.6550    -0.9063 H            1 G4M500   0.0000
    61 H3L         71.7110    46.4032     0.5413 H            1 G4M500   0.0000
    62 H4A         70.5824    49.6148     3.9511 H            1 G4M500   0.0000
    63 H10         72.3497    48.1067     2.2174 H            1 G4M500   0.0000
    64 H4G         73.2791    50.3540     2.6751 H            1 G4M500   0.0000
    65 H5G         74.2479    48.2494     4.3983 H            1 G4M500   0.0000
    66 H6G1        75.6566    47.6741     2.5482 H            1 G4M500   0.0000
    67 H6G2        74.0929    47.5356     2.0984 H            1 G4M500   0.0000
    68 H6G3        74.9594    48.8441     1.6473 H            1 G4M500   0.0000
    69 H3G         71.7325    50.0475     4.9188 H            1 G4M500   0.0000
    70 H17         71.5543    52.0943     4.5008 H            1 G4M500   0.0000
    71 H2G         73.5451    49.2081     6.0779 H            1 G4M500   0.0000
    72 H19         73.1532    50.4269     7.7161 H            1 G4M500   0.0000
    73 H1G         75.3175    51.3387     5.3332 H            1 G4M500   0.0000
    74 H5'1        78.4708    53.9802     5.3294 H            1 G4M500   0.0000
    75 H5'2        79.2773    52.8571     6.1983 H            1 G4M500   0.0000
    76 H4'         80.8428    54.4273     5.3614 H            1 G4M500   0.0000
    77 H3'         80.8366    53.6804     7.8986 H            1 G4M500   0.0000
    78 H25         82.8355    53.7113     7.0575 H            1 G4M500   0.0000
    79 H2'         79.7301    55.4684     8.8353 H            1 G4M500   0.0000
    80 H27         81.2204    56.9945     9.7097 H            1 G4M500   0.0000
    81 H1'         81.0154    57.3704     7.1192 H            1 G4M500   0.0000
    82 H29         77.4989    56.2184     7.8347 H            1 G4M500   0.0000
    83 H30         80.7388    62.9773     8.1372 H            1 G4M500   0.0000
    84 H31         81.8120    61.7025     7.6648 H            1 G4M500   0.0000
    85 H32         78.5039    62.5240     8.5971 H            1 G4M500   0.0000
@<TRIPOS>BOND
     1    1    2      ar
     2    2    3      ar
     3    2    4      ar
     4    2    5       1
     5    5    6       1
     6    6    7       1
     7    7    8       2
     8    7   14       1
     9    8    9       1
    10    9   10       1
    11   10   11       1
    12   10   12       2
    13   12   13       1
    14   12   14       1
    15   14   15       2
    16   15   16       1
    17   16   17       1
    18   17   18       1
    19   17   21       1
    20   18   19       1
    21   18   20       1
    22   20   25       1
    23   21   22       1
    24   21   23       1
    25   23   24       1
    26   23   25       1
    27   25   26       1
    28   26   27       1
    29   27   28      ar
    30   27   29      ar
    31   27   30       1
    32   30   31       1
    33   31   32      ar
    34   31   33      ar
    35   31   34       1
    36   34   35       1
    37   35   36       1
    38   36   37       1
    39   36   38       1
    40   37   42       1
    41   38   39       1
    42   38   40       1
    43   40   41       1
    44   40   42       1
    45   42   43       1
    46   43   44       1
    47   43   46       1
    48   44   45       2
    49   45   47       1
    50   46   47       2
    51   46   50       1
    52   47   48       1
    53   48   49       2
    54   48   52       1
    55   50   51       2
    56   51   52       1
    57   51   53       1
    58   53   84       1
    59   53   83       1
    60    6   54       1
    61    6   55       1
    62    8   56       1
    63    9   57       1
    64   11   58       1
    65   11   59       1
    66   11   60       1
    67   13   61       1
    68   15   62       1
    69   16   63       1
    70   17   64       1
    71   18   65       1
    72   19   66       1
    73   19   67       1
    74   19   68       1
    75   21   69       1
    76   22   70       1
    77   23   71       1
    78   24   72       1
    79   25   73       1
    80   42   81       1
    81   44   82       1
    82   35   74       1
    83   35   75       1
    84   36   76       1
    85   38   77       1
    86   39   78       1
    87   40   79       1
    88   41   80       1
    89   52   85       1
@<TRIPOS>SUBSTRUCTURE
     1 G4M500      1 GROUP             4 A     G4M     0 **** G4M A 500
