@<TRIPOS>MOLECULE
1cb0_ADE_1_ligand
   16    17     1     0     0
SMALL
NO_CHARGES


@<TRIPOS>ATOM
     1 N9          61.0280    15.9690    27.3510 N.2          1 ADE290   1.0000
     2 C8          60.6990    14.9780    26.4560 C.2          1 ADE290   0.0000
     3 N7          59.8920    15.3740    25.5040 N.pl3        1 ADE290   0.0000
     4 C5          59.6720    16.7040    25.7850 C.ar         1 ADE290   0.0000
     5 C6          58.9060    17.6880    25.1530 C.ar         1 ADE290   0.0000
     6 N6          58.1950    17.4310    24.0540 N.pl3        1 ADE290   0.0000
     7 N1          58.9190    18.9220    25.7170 N.ar         1 ADE290   0.0000
     8 C2          59.6420    19.1470    26.8180 C.ar         1 ADE290   0.0000
     9 N3          60.4020    18.2920    27.4990 N.ar         1 ADE290   0.0000
    10 C4          60.3660    17.0800    26.9150 C.ar         1 ADE290   0.0000
    11 H1          61.6244    15.8920    28.1500 H            1 ADE290   0.0000
    12 H2          61.0440    14.0420    26.5258 H            1 ADE290   0.0000
    13 H3          57.6570    18.1569    23.6254 H            1 ADE290   0.0000
    14 H4          58.1999    16.5125    23.6587 H            1 ADE290   0.0000
    15 H5          59.6077    20.0795    27.1774 H            1 ADE290   0.0000
    16 H6          59.5211    14.8351    24.7476 H            1 ADE290   0.0000
@<TRIPOS>BOND
     1    1    2       2
     2    1   10       1
     3    2    3       1
     4    3    4       1
     5    4    5      ar
     6    4   10      ar
     7    5    6       1
     8    5    7      ar
     9    7    8      ar
    10    8    9      ar
    11    9   10      ar
    12    1   11       1
    13    2   12       1
    14    6   13       1
    15    6   14       1
    16    8   15       1
    17    3   16       1
@<TRIPOS>SUBSTRUCTURE
     1 ADE290      1 GROUP             4 A     ADE     0 **** ADE A 290
