@<TRIPOS>MOLECULE
5im3_DTP_3_ligand
   42    44     1     0     0
SMALL
NO_CHARGES


@<TRIPOS>ATOM
     1 PG           0.2580    -4.7460    57.3590 P.3          1 DTP1004   0.0000
     2 O1G          0.9560    -4.0140    56.2530 O.co2        1 DTP1004   0.0000
     3 O2G         -1.0490    -4.0730    57.7900 O.co2        1 DTP1004  -1.0000
     4 O3G          1.1330    -4.9350    58.6060 O.co2        1 DTP1004  -1.0000
     5 PB          -1.5000    -7.0380    56.9160 P.3          1 DTP1004   0.0000
     6 O1B         -1.2360    -8.4960    56.9590 O.co2        1 DTP1004   0.0000
     7 O2B         -2.3510    -6.5970    58.1000 O.co2        1 DTP1004  -1.0000
     8 O3B         -0.1310    -6.2250    56.9120 O.3          1 DTP1004   0.0000
     9 PA          -1.9010    -6.8710    54.0440 P.3          1 DTP1004   0.0000
    10 O1A         -2.2840    -8.2430    53.6580 O.co2        1 DTP1004   0.0000
    11 O2A         -0.3870    -6.7090    53.8800 O.co2        1 DTP1004  -1.0000
    12 O3A         -2.2630    -6.6420    55.5760 O.3          1 DTP1004   0.0000
    13 O5'         -2.6060    -5.7150    53.2240 O.3          1 DTP1004   0.0000
    14 C5'         -2.6560    -4.3330    53.6310 C.3          1 DTP1004   0.0000
    15 C4'         -3.0360    -3.5140    52.4250 C.3          1 DTP1004   0.0000
    16 O4'         -2.0110    -3.6520    51.4160 O.3          1 DTP1004   0.0000
    17 C3'         -4.3550    -3.9070    51.7570 C.3          1 DTP1004   0.0000
    18 O3'         -5.0310    -2.7380    51.2930 O.3          1 DTP1004   0.0000
    19 C2'         -3.9030    -4.7830    50.5970 C.3          1 DTP1004   0.0000
    20 C1'         -2.5650    -4.1720    50.2200 C.3          1 DTP1004   0.0000
    21 N9          -1.6130    -5.1190    49.6540 N.pl3        1 DTP1004   0.0000
    22 C8          -0.9460    -6.1120    50.3220 C.2          1 DTP1004   0.0000
    23 N7          -0.1810    -6.8510    49.5560 N.2          1 DTP1004   0.0000
    24 C5          -0.3520    -6.3020    48.2940 C.ar         1 DTP1004   0.0000
    25 C6           0.1820    -6.6340    47.0350 C.ar         1 DTP1004   0.0000
    26 N6           1.0260    -7.6480    46.8310 N.pl3        1 DTP1004   0.0000
    27 N1          -0.1920    -5.8820    45.9770 N.ar         1 DTP1004   0.0000
    28 C2          -1.0420    -4.8710    46.1750 C.ar         1 DTP1004   0.0000
    29 N3          -1.6150    -4.4680    47.3110 N.ar         1 DTP1004   0.0000
    30 C4          -1.2280    -5.2310    48.3410 C.ar         1 DTP1004   0.0000
    31 H5'1        -1.7603    -4.0451    53.9698 H            1 DTP1004   0.0000
    32 H5'2        -3.3388    -4.2147    54.3519 H            1 DTP1004   0.0000
    33 H4'         -3.0896    -2.5529    52.6960 H            1 DTP1004   0.0000
    34 H3'         -4.9327    -4.4242    52.3885 H            1 DTP1004   0.0000
    35 H5          -5.2201    -2.1332    52.0666 H            1 DTP1004   0.0000
    36 H2'1        -4.5491    -4.7346    49.8353 H            1 DTP1004   0.0000
    37 H2'2        -3.7968    -5.7350    50.8840 H            1 DTP1004   0.0000
    38 H1'         -2.7134    -3.4249    49.5720 H            1 DTP1004   0.0000
    39 H9          -1.0349    -6.2599    51.3070 H            1 DTP1004   0.0000
    40 H10          1.3713    -7.8338    45.9111 H            1 DTP1004   0.0000
    41 H11          1.3129    -8.2218    47.5981 H            1 DTP1004   0.0000
    42 H12         -1.2821    -4.3435    45.3601 H            1 DTP1004   0.0000
@<TRIPOS>BOND
     1    1    2      ar
     2    1    3      ar
     3    1    4      ar
     4    1    8       1
     5    5    6      ar
     6    5    7      ar
     7    5    8       1
     8    5   12       1
     9    9   10      ar
    10    9   11      ar
    11    9   12       1
    12    9   13       1
    13   13   14       1
    14   14   15       1
    15   15   16       1
    16   15   17       1
    17   16   20       1
    18   17   18       1
    19   17   19       1
    20   19   20       1
    21   20   21       1
    22   21   22       1
    23   21   30       1
    24   22   23       2
    25   23   24       1
    26   24   25      ar
    27   24   30      ar
    28   25   26       1
    29   25   27      ar
    30   27   28      ar
    31   28   29      ar
    32   29   30      ar
    33   28   42       1
    34   26   41       1
    35   26   40       1
    36   22   39       1
    37   14   31       1
    38   14   32       1
    39   15   33       1
    40   17   34       1
    41   18   35       1
    42   19   36       1
    43   19   37       1
    44   20   38       1
@<TRIPOS>SUBSTRUCTURE
     1 DTP1004     1 GROUP             4 A     DTP     0 **** DTP A1004
