@<TRIPOS>MOLECULE
3ua3_SAH_2_ligand
   46    48     1     0     0
SMALL
NO_CHARGES


@<TRIPOS>ATOM
     1 N           73.8870    -6.7430     9.7040 N.4          1 SAH743   1.0000
     2 CA          72.4390    -6.5500     9.6940 C.3          1 SAH743   0.0000
     3 CB          71.9330    -6.0730    11.0560 C.3          1 SAH743   0.0000
     4 CG          72.8620    -5.1540    11.8450 C.3          1 SAH743   0.0000
     5 SD          72.0090    -4.4390    13.2750 S.3          1 SAH743   0.0000
     6 C           71.9750    -5.6000     8.5910 C.2          1 SAH743   0.0000
     7 O           72.6540    -4.6280     8.2540 O.co2        1 SAH743   0.0000
     8 OXT         70.9000    -5.7800     8.0160 O.co2        1 SAH743  -1.0000
     9 C5'         73.1310    -5.2720    14.4270 C.3          1 SAH743   0.0000
    10 C4'         72.9320    -6.7850    14.5390 C.3          1 SAH743   0.0000
    11 O4'         73.9220    -7.3240    15.3940 O.3          1 SAH743   0.0000
    12 C3'         71.5880    -7.1930    15.1170 C.3          1 SAH743   0.0000
    13 O3'         70.8800    -7.9320    14.1510 O.3          1 SAH743   0.0000
    14 C2'         71.9000    -8.0940    16.2900 C.3          1 SAH743   0.0000
    15 O2'         71.2430    -9.3220    16.1140 O.3          1 SAH743   0.0000
    16 C1'         73.3920    -8.3310    16.2220 C.3          1 SAH743   0.0000
    17 N9          74.0460    -8.2650    17.5390 N.pl3        1 SAH743   0.0000
    18 C8          74.1200    -7.1740    18.3600 C.2          1 SAH743   0.0000
    19 N7          74.8180    -7.5170    19.4670 N.2          1 SAH743   0.0000
    20 C5          75.1910    -8.8120    19.3650 C.ar         1 SAH743   0.0000
    21 C6          75.9100    -9.6570    20.2060 C.ar         1 SAH743   0.0000
    22 N6          76.3760    -9.2250    21.3740 N.pl3        1 SAH743   0.0000
    23 N1          76.1420   -10.9580    19.8220 N.ar         1 SAH743   0.0000
    24 C2          75.6620   -11.4140    18.6110 C.ar         1 SAH743   0.0000
    25 N3          74.9500   -10.5720    17.7840 N.ar         1 SAH743   0.0000
    26 C4          74.7180    -9.2920    18.1520 C.ar         1 SAH743   0.0000
    27 H1          74.1880    -7.0541     8.8026 H            1 SAH743   0.0000
    28 H2          74.3371    -5.8779     9.9255 H            1 SAH743   0.0000
    29 HA          72.0207    -7.4407     9.5158 H            1 SAH743   0.0000
    30 HB1         71.7596    -6.8830    11.6162 H            1 SAH743   0.0000
    31 HB2         71.0751    -5.5815    10.9061 H            1 SAH743   0.0000
    32 HG1         73.1751    -4.4152    11.2482 H            1 SAH743   0.0000
    33 HG2         73.6495    -5.6812    12.1642 H            1 SAH743   0.0000
    34 H5'1        72.9973    -4.8730    15.3342 H            1 SAH743   0.0000
    35 H5'2        74.0689    -5.1036    14.1237 H            1 SAH743   0.0000
    36 H4'         73.0313    -7.1927    13.6313 H            1 SAH743   0.0000
    37 H3'         71.0655    -6.3920    15.4093 H            1 SAH743   0.0000
    38 H12         71.4036    -8.7479    13.9058 H            1 SAH743   0.0000
    39 H2'         71.6404    -7.6651    17.1553 H            1 SAH743   0.0000
    40 H14         71.9176   -10.0595    16.0828 H            1 SAH743   0.0000
    41 H1'         73.5670    -9.2251    15.8097 H            1 SAH743   0.0000
    42 H16         73.7249    -6.2745    18.1736 H            1 SAH743   0.0000
    43 H17         76.8907    -9.8443    21.9669 H            1 SAH743   0.0000
    44 H18         76.2118    -8.2808    21.6595 H            1 SAH743   0.0000
    45 H19         75.8315   -12.3593    18.3324 H            1 SAH743   0.0000
    46 H20         74.1271    -7.4291    10.3908 H            1 SAH743   0.0000
@<TRIPOS>BOND
     1    1    2       1
     2    2    3       1
     3    2    6       1
     4    3    4       1
     5    4    5       1
     6    5    9       1
     7    6    7      ar
     8    6    8      ar
     9    9   10       1
    10   10   11       1
    11   10   12       1
    12   11   16       1
    13   12   13       1
    14   12   14       1
    15   14   15       1
    16   14   16       1
    17   16   17       1
    18   17   18       1
    19   17   26       1
    20   18   19       2
    21   19   20       1
    22   20   21      ar
    23   20   26      ar
    24   21   22       1
    25   21   23      ar
    26   23   24      ar
    27   24   25      ar
    28   25   26      ar
    29    1   27       1
    30    1   28       1
    31    2   29       1
    32    3   30       1
    33    3   31       1
    34    4   32       1
    35    4   33       1
    36    1   46       1
    37    9   34       1
    38    9   35       1
    39   10   36       1
    40   12   37       1
    41   13   38       1
    42   14   39       1
    43   15   40       1
    44   16   41       1
    45   18   42       1
    46   22   43       1
    47   22   44       1
    48   24   45       1
@<TRIPOS>SUBSTRUCTURE
     1 SAH743      1 GROUP             4 B     SAH     0 **** SAH B 743
