@<TRIPOS>MOLECULE
4rrv_ATP_1_ligand
   43    45     1     0     0
SMALL
NO_CHARGES


@<TRIPOS>ATOM
     1 PG         -23.8890     3.0410    -9.5640 P.3          1 ATP401   0.0000
     2 O1G        -24.8330     3.0520   -10.7400 O.co2        1 ATP401   0.0000
     3 O2G        -22.9660     4.2380    -9.5110 O.co2        1 ATP401  -1.0000
     4 O3G        -24.4740     2.6530    -8.2250 O.co2        1 ATP401  -1.0000
     5 PB         -21.6100     1.3030    -9.1630 P.3          1 ATP401   0.0000
     6 O1B        -21.6820    -0.2010    -9.3000 O.co2        1 ATP401   0.0000
     7 O2B        -21.4740     1.9090    -7.7780 O.co2        1 ATP401  -1.0000
     8 O3B        -22.9000     1.8370    -9.9680 O.3          1 ATP401   0.0000
     9 PA         -18.8380     1.8260    -9.9080 P.3          1 ATP401   0.0000
    10 O1A        -18.2310     2.4220   -11.1450 O.co2        1 ATP401   0.0000
    11 O2A        -18.4560     2.3080    -8.5230 O.co2        1 ATP401  -1.0000
    12 O3A        -20.4350     1.8610   -10.1300 O.3          1 ATP401   0.0000
    13 O5'        -18.5240     0.2590    -9.9570 O.3          1 ATP401   0.0000
    14 C5'        -18.9200    -0.5330   -11.0660 C.3          1 ATP401   0.0000
    15 C4'        -18.6470    -1.9710   -10.6790 C.3          1 ATP401   0.0000
    16 O4'        -17.2500    -2.2640   -10.8040 O.3          1 ATP401   0.0000
    17 C3'        -19.0000    -2.3070    -9.2270 C.3          1 ATP401   0.0000
    18 O3'        -20.3890    -2.6270    -9.0790 O.3          1 ATP401   0.0000
    19 C2'        -18.0660    -3.4510    -8.9080 C.3          1 ATP401   0.0000
    20 O2'        -18.6830    -4.7180    -9.1580 O.3          1 ATP401   0.0000
    21 C1'        -16.8670    -3.2120    -9.8200 C.3          1 ATP401   0.0000
    22 N9         -15.8060    -2.6080    -9.0030 N.pl3        1 ATP401   0.0000
    23 C8         -15.8250    -1.3620    -8.4690 C.2          1 ATP401   0.0000
    24 N7         -14.6800    -1.1460    -7.7800 N.2          1 ATP401   0.0000
    25 C5         -13.9470    -2.2630    -7.8810 C.ar         1 ATP401   0.0000
    26 C6         -12.6430    -2.6830    -7.3930 C.ar         1 ATP401   0.0000
    27 N6         -12.0250    -1.7700    -6.6420 N.pl3        1 ATP401   0.0000
    28 N1         -12.1800    -3.9230    -7.6780 N.ar         1 ATP401   0.0000
    29 C2         -12.9270    -4.7590    -8.4230 C.ar         1 ATP401   0.0000
    30 N3         -14.1220    -4.4150    -8.9180 N.ar         1 ATP401   0.0000
    31 C4         -14.6730    -3.2150    -8.6800 C.ar         1 ATP401   0.0000
    32 H5'1       -18.3884    -0.2853   -11.8760 H            1 ATP401   0.0000
    33 H5'2       -19.8936    -0.4037   -11.2540 H            1 ATP401   0.0000
    34 H4'        -19.1619    -2.5751   -11.2872 H            1 ATP401   0.0000
    35 H3'        -18.7770    -1.5260    -8.6436 H            1 ATP401   0.0000
    36 H5         -20.9434    -1.8453    -9.3646 H            1 ATP401   0.0000
    37 H2'        -17.7795    -3.3971    -7.9514 H            1 ATP401   0.0000
    38 H7         -19.5002    -4.8089    -8.5889 H            1 ATP401   0.0000
    39 H1'        -16.5576    -4.0647   -10.2409 H            1 ATP401   0.0000
    40 H9         -16.5708    -0.7033    -8.5688 H            1 ATP401   0.0000
    41 H10        -11.1220    -1.9654    -6.2594 H            1 ATP401   0.0000
    42 H11        -12.4648    -0.8902    -6.4616 H            1 ATP401   0.0000
    43 H12        -12.5745    -5.6750    -8.6146 H            1 ATP401   0.0000
@<TRIPOS>BOND
     1    1    2      ar
     2    1    3      ar
     3    1    4      ar
     4    1    8       1
     5    5    6      ar
     6    5    7      ar
     7    5    8       1
     8    5   12       1
     9    9   10      ar
    10    9   11      ar
    11    9   12       1
    12    9   13       1
    13   13   14       1
    14   14   15       1
    15   15   16       1
    16   15   17       1
    17   16   21       1
    18   17   18       1
    19   17   19       1
    20   19   20       1
    21   19   21       1
    22   21   22       1
    23   22   23       1
    24   22   31       1
    25   23   24       2
    26   24   25       1
    27   25   26      ar
    28   25   31      ar
    29   26   27       1
    30   26   28      ar
    31   28   29      ar
    32   29   30      ar
    33   30   31      ar
    34   29   43       1
    35   27   42       1
    36   27   41       1
    37   23   40       1
    38   14   32       1
    39   14   33       1
    40   15   34       1
    41   17   35       1
    42   18   36       1
    43   19   37       1
    44   20   38       1
    45   21   39       1
@<TRIPOS>SUBSTRUCTURE
     1 ATP401      1 GROUP             4 A     ATP     0 **** ATP A 401
