@<TRIPOS>MOLECULE
3qfz_NOJ_2_ligand
   25    25     1     0     0
SMALL
NO_CHARGES


@<TRIPOS>ATOM
     1 C1         -14.2440    73.6110    79.7180 C.3          1 NOJ2903   0.0000
     2 C2         -14.7670    72.6720    80.8210 C.3          1 NOJ2903   0.0000
     3 O2         -15.3510    71.4560    80.3000 O.3          1 NOJ2903   0.0000
     4 C3         -15.7210    73.3930    81.7730 C.3          1 NOJ2903   0.0000
     5 O3         -15.9330    72.4930    82.8760 O.3          1 NOJ2903   0.0000
     6 C4         -15.1270    74.7260    82.2690 C.3          1 NOJ2903   0.0000
     7 O4         -16.1350    75.4030    83.0160 O.3          1 NOJ2903   0.0000
     8 C5         -14.6120    75.5730    81.0840 C.3          1 NOJ2903   0.0000
     9 N5         -13.6320    74.7770    80.3530 N.4          1 NOJ2903   1.0000
    10 C6         -14.1020    76.9730    81.4130 C.3          1 NOJ2903   0.0000
    11 O6         -12.8650    76.9740    82.1340 O.3          1 NOJ2903   0.0000
    12 H1         -15.0029    73.9033    79.1361 H            1 NOJ2903   0.0000
    13 H2         -13.5632    73.1330    79.1629 H            1 NOJ2903   0.0000
    14 H3         -13.9732    72.3984    81.3641 H            1 NOJ2903   0.0000
    15 H4         -15.7458    71.6353    79.3989 H            1 NOJ2903   0.0000
    16 H5         -16.5901    73.5654    81.3094 H            1 NOJ2903   0.0000
    17 H6         -16.7183    71.9056    82.6807 H            1 NOJ2903   0.0000
    18 H7         -14.3585    74.5267    82.8770 H            1 NOJ2903   0.0000
    19 H8         -15.7052    75.9655    83.7223 H            1 NOJ2903   0.0000
    20 H9         -15.3899    75.6954    80.4677 H            1 NOJ2903   0.0000
    21 H10        -13.2135    75.3478    79.6466 H            1 NOJ2903   0.0000
    22 H11        -14.7918    77.4394    81.9668 H            1 NOJ2903   0.0000
    23 H12        -13.9696    77.4714    80.5562 H            1 NOJ2903   0.0000
    24 H13        -12.1023    76.9927    81.4875 H            1 NOJ2903   0.0000
    25 H14        -12.9274    74.4657    80.9907 H            1 NOJ2903   0.0000
@<TRIPOS>BOND
     1    1    2       1
     2    1    9       1
     3    2    3       1
     4    2    4       1
     5    4    5       1
     6    4    6       1
     7    6    7       1
     8    6    8       1
     9    8    9       1
    10    8   10       1
    11   10   11       1
    12    1   12       1
    13    1   13       1
    14    2   14       1
    15    3   15       1
    16    4   16       1
    17    5   17       1
    18    6   18       1
    19    7   19       1
    20    8   20       1
    21    9   21       1
    22   10   22       1
    23   10   23       1
    24   11   24       1
    25    9   25       1
@<TRIPOS>SUBSTRUCTURE
     1 NOJ2903     1 GROUP             4 B     NOJ     0 **** NOJ B2903
