@<TRIPOS>MOLECULE
4koa_NDP_1_ligand
   73    77     1     0     0
SMALL
NO_CHARGES


@<TRIPOS>ATOM
     1 PA          21.0190    30.1470    -2.1210 P.3          1 NDP500   0.0000
     2 O1A         20.5200    30.2280    -0.6870 O.co2        1 NDP500   0.0000
     3 O2A         22.4390    30.5280    -2.3610 O.co2        1 NDP500  -1.0000
     4 O5B         20.0850    31.0940    -3.0380 O.3          1 NDP500   0.0000
     5 C5B         18.6970    30.7740    -3.2540 C.3          1 NDP500   0.0000
     6 C4B         17.8050    32.0100    -3.1540 C.3          1 NDP500   0.0000
     7 O4B         17.7280    32.5370    -1.8140 O.3          1 NDP500   0.0000
     8 C3B         18.3040    33.1290    -4.0790 C.3          1 NDP500   0.0000
     9 O3B         17.5750    33.1270    -5.3160 O.3          1 NDP500   0.0000
    10 C2B         18.2050    34.4180    -3.2420 C.3          1 NDP500   0.0000
    11 O2B         17.2600    35.4170    -3.6530 O.3          1 NDP500   0.0000
    12 C1B         17.8680    33.9610    -1.8150 C.3          1 NDP500   0.0000
    13 N9A         18.9660    34.4720    -0.9380 N.pl3        1 NDP500   0.0000
    14 C8A         20.2980    34.2830    -1.1110 C.2          1 NDP500   0.0000
    15 N7A         20.9990    34.9350    -0.1470 N.2          1 NDP500   0.0000
    16 C5A         20.1140    35.5650     0.6650 C.ar         1 NDP500   0.0000
    17 C6A         20.1580    36.4260     1.8880 C.ar         1 NDP500   0.0000
    18 N6A         21.3350    36.7690     2.4770 N.pl3        1 NDP500   0.0000
    19 N1A         18.9770    36.8610     2.4110 N.ar         1 NDP500   0.0000
    20 C2A         17.7800    36.5490     1.8670 C.ar         1 NDP500   0.0000
    21 N3A         17.6770    35.7820     0.7620 N.ar         1 NDP500   0.0000
    22 C4A         18.7740    35.2630     0.1290 C.ar         1 NDP500   0.0000
    23 O3          20.6360    28.6780    -2.7080 O.3          1 NDP500   0.0000
    24 PN          21.5350    27.5620    -3.4980 P.3          1 NDP500   0.0000
    25 O1N         22.4150    28.1540    -4.5460 O.co2        1 NDP500   0.0000
    26 O2N         22.1650    26.6270    -2.4680 O.co2        1 NDP500  -1.0000
    27 O5D         20.3510    26.7350    -4.2620 O.3          1 NDP500   0.0000
    28 C5D         19.7030    27.1740    -5.4610 C.3          1 NDP500   0.0000
    29 C4D         19.0880    25.9920    -6.2190 C.3          1 NDP500   0.0000
    30 O4D         19.7990    24.7620    -5.9790 O.3          1 NDP500   0.0000
    31 C3D         17.6160    25.7620    -5.8510 C.3          1 NDP500   0.0000
    32 O3D         16.7750    26.0860    -6.9680 O.3          1 NDP500   0.0000
    33 C2D         17.5050    24.3000    -5.4100 C.3          1 NDP500   0.0000
    34 O2D         16.5310    23.5700    -6.1820 O.3          1 NDP500   0.0000
    35 C1D         18.9190    23.7070    -5.5470 C.3          1 NDP500   0.0000
    36 N1N         19.3970    23.0940    -4.2790 N.ar         1 NDP500   1.0000
    37 C2N         19.7360    23.8750    -3.2450 C.ar         1 NDP500   0.0000
    38 C3N         20.1840    23.3500    -2.0340 C.ar         1 NDP500   0.0000
    39 C7N         20.5470    24.2920    -0.9210 C.2          1 NDP500   0.0000
    40 O7N         20.1500    25.4470    -0.9780 O.2          1 NDP500   0.0000
    41 N7N         21.2930    23.8570     0.1040 N.am         1 NDP500   0.0000
    42 C4N         20.3080    21.8560    -1.8220 C.ar         1 NDP500   0.0000
    43 C5N         19.9060    21.1130    -3.0050 C.ar         1 NDP500   0.0000
    44 C6N         19.4800    21.7540    -4.1630 C.ar         1 NDP500   0.0000
    45 P2B         17.5050    36.4040    -4.9000 P.3          1 NDP500   0.0000
    46 O1X         18.7300    37.2020    -4.5550 O.co2        1 NDP500   0.0000
    47 O2X         17.7740    35.4660    -6.0090 O.co2        1 NDP500  -1.0000
    48 O3X         16.1910    37.0640    -5.0290 O.co2        1 NDP500  -1.0000
    49 H5B1        18.4074    30.1097    -2.5649 H            1 NDP500   0.0000
    50 H5B2        18.5953    30.3748    -4.1652 H            1 NDP500   0.0000
    51 H4B         16.8825    31.7539    -3.4427 H            1 NDP500   0.0000
    52 H3B         19.2684    32.9607    -4.2830 H            1 NDP500   0.0000
    53 H5          17.5290    34.0583    -5.6773 H            1 NDP500   0.0000
    54 H2B         19.1106    34.8417    -3.2227 H            1 NDP500   0.0000
    55 H1B         17.0029    34.3760    -1.5332 H            1 NDP500   0.0000
    56 H8A         20.7065    33.7402    -1.8448 H            1 NDP500   0.0000
    57 H6A1        21.3359    37.3458     3.2939 H            1 NDP500   0.0000
    58 H6A2        22.1995    36.4443     2.0932 H            1 NDP500   0.0000
    59 H2A         16.9463    36.8968     2.2960 H            1 NDP500   0.0000
    60 H5D1        20.3743    27.6255    -6.0488 H            1 NDP500   0.0000
    61 H5D2        18.9793    27.8217    -5.2230 H            1 NDP500   0.0000
    62 H4D         19.1357    26.1922    -7.1976 H            1 NDP500   0.0000
    63 H3D         17.3767    26.3534    -5.0810 H            1 NDP500   0.0000
    64 H16         16.1447    26.8180    -6.7094 H            1 NDP500   0.0000
    65 H2D         17.2372    24.2740    -4.4469 H            1 NDP500   0.0000
    66 H18         15.6363    23.6390    -5.7407 H            1 NDP500   0.0000
    67 H1D         18.8998    23.0000    -6.2540 H            1 NDP500   0.0000
    68 H2N         19.6654    24.8675    -3.3451 H            1 NDP500   0.0000
    69 H7N1        21.5361    24.4817     0.8460 H            1 NDP500   0.0000
    70 H7N2        21.6065    22.9077     0.1267 H            1 NDP500   0.0000
    71 H4N         20.6268    21.4330    -0.9738 H            1 NDP500   0.0000
    72 H5N         19.9367    20.1137    -2.9854 H            1 NDP500   0.0000
    73 H6N         19.2223    21.1924    -4.9492 H            1 NDP500   0.0000
@<TRIPOS>BOND
     1    1    2      ar
     2    1    3      ar
     3    1    4       1
     4    1   23       1
     5    4    5       1
     6    5    6       1
     7    6    7       1
     8    6    8       1
     9    7   12       1
    10    8    9       1
    11    8   10       1
    12   10   11       1
    13   10   12       1
    14   11   45       1
    15   12   13       1
    16   13   14       1
    17   13   22       1
    18   14   15       2
    19   15   16       1
    20   16   17      ar
    21   16   22      ar
    22   17   18       1
    23   17   19      ar
    24   19   20      ar
    25   20   21      ar
    26   21   22      ar
    27   23   24       1
    28   24   25      ar
    29   24   26      ar
    30   24   27       1
    31   27   28       1
    32   28   29       1
    33   29   30       1
    34   29   31       1
    35   30   35       1
    36   31   32       1
    37   31   33       1
    38   33   34       1
    39   33   35       1
    40   35   36       1
    41   36   37      ar
    42   36   44      ar
    43   37   38      ar
    44   38   39       1
    45   38   42      ar
    46   39   40       2
    47   39   41      am
    48   42   43      ar
    49   43   44      ar
    50   45   46      ar
    51   45   47      ar
    52   45   48      ar
    53   43   72       1
    54    5   49       1
    55    5   50       1
    56    6   51       1
    57    8   52       1
    58    9   53       1
    59   10   54       1
    60   12   55       1
    61   14   56       1
    62   18   57       1
    63   18   58       1
    64   20   59       1
    65   44   73       1
    66   28   60       1
    67   28   61       1
    68   29   62       1
    69   31   63       1
    70   32   64       1
    71   33   65       1
    72   34   66       1
    73   35   67       1
    74   37   68       1
    75   41   69       1
    76   41   70       1
    77   42   71       1
@<TRIPOS>SUBSTRUCTURE
     1 NDP500      1 GROUP             4 A     NDP     0 **** NDP A 500
