@<TRIPOS>MOLECULE
3bk2_U5P_1_ligand
   32    33     1     0     0
SMALL
NO_CHARGES


@<TRIPOS>ATOM
     1 N1          11.3690    36.4260    34.9820 N.pl3        1 U5P950   0.0000
     2 C2          10.6230    36.3320    33.7480 C.2          1 U5P950   0.0000
     3 N3           9.6560    37.2460    33.4840 N.pl3        1 U5P950   0.0000
     4 C4           9.3780    38.2670    34.3580 C.2          1 U5P950   0.0000
     5 C5          10.0840    38.4040    35.5760 C.2          1 U5P950   0.0000
     6 C6          11.0990    37.4500    35.8640 C.2          1 U5P950   0.0000
     7 O2          10.8380    35.4000    32.9010 O.2          1 U5P950   0.0000
     8 O4           8.4570    39.0670    34.0240 O.2          1 U5P950   0.0000
     9 C1'         12.3900    35.3570    35.1490 C.3          1 U5P950   0.0000
    10 C2'         13.7830    35.6690    35.6550 C.3          1 U5P950   0.0000
    11 O2'         14.6550    36.1300    34.6120 O.3          1 U5P950   0.0000
    12 C3'         14.2360    34.3000    36.1760 C.3          1 U5P950   0.0000
    13 C4'         12.9360    33.6860    36.7170 C.3          1 U5P950   0.0000
    14 O3'         14.8180    33.4490    35.1790 O.3          1 U5P950   0.0000
    15 O4'         11.8550    34.3790    36.0610 O.3          1 U5P950   0.0000
    16 C5'         12.7750    33.8480    38.2550 C.3          1 U5P950   0.0000
    17 O5'         12.8560    35.2150    38.7120 O.3          1 U5P950   0.0000
    18 P           13.1920    35.5130    40.1450 P.3          1 U5P950   0.0000
    19 O1P         12.2080    36.4610    40.7090 O.co2        1 U5P950   0.0000
    20 O2P         13.4150    34.1280    40.9720 O.co2        1 U5P950  -1.0000
    21 O3P         14.5340    36.2030    40.1920 O.co2        1 U5P950  -1.0000
    22 H1           9.1343    37.1743    32.6339 H            1 U5P950   0.0000
    23 H2           9.8766    39.1464    36.2130 H            1 U5P950   0.0000
    24 H3          11.6211    37.5229    36.7137 H            1 U5P950   0.0000
    25 H1'         12.4929    34.9070    34.2619 H            1 U5P950   0.0000
    26 H2'         13.7452    36.3339    36.4009 H            1 U5P950   0.0000
    27 H6          15.3340    36.7550    34.9971 H            1 U5P950   0.0000
    28 H3'         14.8839    34.4261    36.9272 H            1 U5P950   0.0000
    29 H4'         12.9021    32.7153    36.4791 H            1 U5P950   0.0000
    30 H9          15.6246    33.8943    34.7902 H            1 U5P950   0.0000
    31 H5'1        13.4978    33.3227    38.7041 H            1 U5P950   0.0000
    32 H5'2        11.8831    33.4805    38.5184 H            1 U5P950   0.0000
@<TRIPOS>BOND
     1    1    2       1
     2    1    6       1
     3    1    9       1
     4    2    3       1
     5    2    7       2
     6    3    4       1
     7    4    5       1
     8    4    8       2
     9    5    6       2
    10    9   10       1
    11    9   15       1
    12   10   11       1
    13   10   12       1
    14   12   13       1
    15   12   14       1
    16   13   15       1
    17   13   16       1
    18   16   17       1
    19   17   18       1
    20   18   19      ar
    21   18   20      ar
    22   18   21      ar
    23    3   22       1
    24    5   23       1
    25    6   24       1
    26    9   25       1
    27   10   26       1
    28   11   27       1
    29   12   28       1
    30   13   29       1
    31   14   30       1
    32   16   31       1
    33   16   32       1
@<TRIPOS>SUBSTRUCTURE
     1 U5P950      1 GROUP             4 A     U5P     0 **** U5P A 950
