@<TRIPOS>MOLECULE
3gry_SAM_1_ligand
   50    52     1     0     0
SMALL
NO_CHARGES


@<TRIPOS>ATOM
     1 N           16.4880    19.1070    15.3280 N.4          1 SAM300   1.0000
     2 CA          16.9330    19.3890    13.9300 C.3          1 SAM300   0.0000
     3 C           17.2410    18.0660    13.2090 C.2          1 SAM300   0.0000
     4 O           16.6090    17.7060    12.2110 O.co2        1 SAM300   0.0000
     5 OXT         18.1060    17.3090    13.6300 O.co2        1 SAM300  -1.0000
     6 CB          18.1180    20.4080    13.9010 C.3          1 SAM300   0.0000
     7 CG          19.4770    19.8960    14.4060 C.3          1 SAM300   0.0000
     8 SD          20.9660    20.5820    13.5650 S.3          1 SAM300   1.0000
     9 CE          22.2310    19.6580    14.4170 C.3          1 SAM300   0.0000
    10 C5'         21.3430    22.2710    14.1840 C.3          1 SAM300   0.0000
    11 C4'         20.1930    23.3030    13.9920 C.3          1 SAM300   0.0000
    12 O4'         20.2490    24.3700    15.0020 O.3          1 SAM300   0.0000
    13 C3'         20.2230    24.0020    12.6280 C.3          1 SAM300   0.0000
    14 O3'         18.8750    24.2040    12.1980 O.3          1 SAM300   0.0000
    15 C2'         20.8780    25.3530    12.9040 C.3          1 SAM300   0.0000
    16 O2'         20.3110    26.3540    12.0490 O.3          1 SAM300   0.0000
    17 C1'         20.4680    25.6520    14.3470 C.3          1 SAM300   0.0000
    18 N9          21.5050    26.3580    15.1300 N.pl3        1 SAM300   0.0000
    19 C8          22.8340    26.2680    14.9910 C.2          1 SAM300   0.0000
    20 N7          23.4210    27.0520    15.8940 N.2          1 SAM300   0.0000
    21 C5          22.4670    27.6420    16.6130 C.ar         1 SAM300   0.0000
    22 C6          22.4650    28.5450    17.6730 C.ar         1 SAM300   0.0000
    23 N6          23.6000    29.0130    18.1890 N.pl3        1 SAM300   0.0000
    24 N1          21.2870    28.9470    18.1780 N.ar         1 SAM300   0.0000
    25 C2          20.1350    28.4990    17.6880 C.ar         1 SAM300   0.0000
    26 N3          20.1050    27.6390    16.6800 N.ar         1 SAM300   0.0000
    27 C4          21.2490    27.1960    16.1270 C.ar         1 SAM300   0.0000
    28 H1          16.7491    19.8687    15.9210 H            1 SAM300   0.0000
    29 H2          15.4943    18.9963    15.3456 H            1 SAM300   0.0000
    30 HA          16.1636    19.8146    13.4536 H            1 SAM300   0.0000
    31 HB1         17.8592    21.1909    14.4668 H            1 SAM300   0.0000
    32 HB2         18.2387    20.7064    12.9542 H            1 SAM300   0.0000
    33 HG1         19.4913    18.9028    14.2903 H            1 SAM300   0.0000
    34 HG2         19.5454    20.1194    15.3783 H            1 SAM300   0.0000
    35 HE1         23.1296    19.9214    14.0661 H            1 SAM300   0.0000
    36 HE2         22.1849    19.8547    15.3964 H            1 SAM300   0.0000
    37 HE3         22.0879    18.6798    14.2663 H            1 SAM300   0.0000
    38 H5'1        22.1493    22.6085    13.6983 H            1 SAM300   0.0000
    39 H5'2        21.5450    22.2072    15.1613 H            1 SAM300   0.0000
    40 H4'         19.3195    22.8250    14.0840 H            1 SAM300   0.0000
    41 H3'         20.7446    23.4734    11.9582 H            1 SAM300   0.0000
    42 H15         18.3942    24.7734    12.8648 H            1 SAM300   0.0000
    43 H2'         21.8721    25.3064    12.8064 H            1 SAM300   0.0000
    44 H17         19.5232    26.7717    12.5017 H            1 SAM300   0.0000
    45 H1'         19.6207    26.1831    14.3536 H            1 SAM300   0.0000
    46 H19         23.3096    25.7027    14.3171 H            1 SAM300   0.0000
    47 H20         23.5734    29.6609    18.9503 H            1 SAM300   0.0000
    48 H21         24.4789    28.7165    17.8152 H            1 SAM300   0.0000
    49 H22         19.2751    28.8169    18.0875 H            1 SAM300   0.0000
    50 H23         16.9228    18.2672    15.6532 H            1 SAM300   0.0000
@<TRIPOS>BOND
     1    1    2       1
     2    2    3       1
     3    2    6       1
     4    3    4      ar
     5    3    5      ar
     6    6    7       1
     7    7    8       1
     8    8    9       1
     9    8   10       1
    10   10   11       1
    11   11   12       1
    12   11   13       1
    13   12   17       1
    14   13   14       1
    15   13   15       1
    16   15   16       1
    17   15   17       1
    18   17   18       1
    19   18   19       1
    20   18   27       1
    21   19   20       2
    22   20   21       1
    23   21   22      ar
    24   21   27      ar
    25   22   23       1
    26   22   24      ar
    27   24   25      ar
    28   25   26      ar
    29   26   27      ar
    30    1   28       1
    31    1   29       1
    32    2   30       1
    33    1   50       1
    34    6   31       1
    35    6   32       1
    36    7   33       1
    37    7   34       1
    38    9   35       1
    39    9   36       1
    40    9   37       1
    41   10   38       1
    42   10   39       1
    43   11   40       1
    44   13   41       1
    45   14   42       1
    46   15   43       1
    47   16   44       1
    48   17   45       1
    49   19   46       1
    50   23   47       1
    51   23   48       1
    52   25   49       1
@<TRIPOS>SUBSTRUCTURE
     1 SAM300      1 GROUP             4 A     SAM     0 **** SAM A 300
