@<TRIPOS>MOLECULE
4rdi_ATP_3_ligand
   43    45     1     0     0
SMALL
NO_CHARGES


@<TRIPOS>ATOM
     1 PG          23.3870    59.4470    20.7890 P.3          1 ATP301   0.0000
     2 O1G         24.0220    58.6590    19.6570 O.co2        1 ATP301   0.0000
     3 O2G         24.0960    60.7390    21.1010 O.co2        1 ATP301  -1.0000
     4 O3G         21.9050    59.6010    20.8540 O.co2        1 ATP301  -1.0000
     5 PB          23.5390    57.0740    22.4520 P.3          1 ATP301   0.0000
     6 O1B         22.4320    56.4490    21.5920 O.co2        1 ATP301   0.0000
     7 O2B         24.8680    56.3640    22.4710 O.co2        1 ATP301  -1.0000
     8 O3B         23.7060    58.6460    22.1730 O.3          1 ATP301   0.0000
     9 PA          23.0310    56.8760    25.3930 P.3          1 ATP301   0.0000
    10 O1A         24.3200    57.4400    25.8260 O.co2        1 ATP301   0.0000
    11 O2A         21.6510    57.2120    25.9330 O.co2        1 ATP301  -1.0000
    12 O3A         22.7600    57.1590    23.8580 O.3          1 ATP301   0.0000
    13 O5'         23.0770    55.2980    25.3770 O.3          1 ATP301   0.0000
    14 C5'         21.9130    54.5220    25.2570 C.3          1 ATP301   0.0000
    15 C4'         22.3130    53.2350    24.5870 C.3          1 ATP301   0.0000
    16 O4'         21.1900    52.4050    24.5750 O.3          1 ATP301   0.0000
    17 C3'         22.7710    53.3310    23.1010 C.3          1 ATP301   0.0000
    18 O3'         24.0120    52.6000    22.9530 O.3          1 ATP301   0.0000
    19 C2'         21.6160    52.8140    22.3000 C.3          1 ATP301   0.0000
    20 O2'         21.9150    52.1700    21.0320 O.3          1 ATP301   0.0000
    21 C1'         21.0840    51.7980    23.2600 C.3          1 ATP301   0.0000
    22 N9          19.7130    51.4210    23.0180 N.pl3        1 ATP301   0.0000
    23 C8          18.6850    52.2780    22.6690 C.2          1 ATP301   0.0000
    24 N7          17.5390    51.6080    22.5750 N.2          1 ATP301   0.0000
    25 C5          17.8060    50.3210    22.8540 C.ar         1 ATP301   0.0000
    26 C6          17.0410    49.0740    22.8490 C.ar         1 ATP301   0.0000
    27 N6          15.6990    49.0680    22.6240 N.pl3        1 ATP301   0.0000
    28 N1          17.6920    47.9560    23.1440 N.ar         1 ATP301   0.0000
    29 C2          19.0410    47.8950    23.3570 C.ar         1 ATP301   0.0000
    30 N3          19.7810    48.9690    23.3660 N.ar         1 ATP301   0.0000
    31 C4          19.2470    50.1690    23.0870 C.ar         1 ATP301   0.0000
    32 H5'1        21.2349    55.0028    24.7011 H            1 ATP301   0.0000
    33 H5'2        21.5300    54.3343    26.1615 H            1 ATP301   0.0000
    34 H4'         23.0354    52.7987    25.1235 H            1 ATP301   0.0000
    35 H3'         22.9270    54.2909    22.8681 H            1 ATP301   0.0000
    36 H5          23.8125    51.6485    22.7188 H            1 ATP301   0.0000
    37 H2'         20.9425    53.5405    22.1636 H            1 ATP301   0.0000
    38 H7          22.0518    51.1905    21.1797 H            1 ATP301   0.0000
    39 H1'         21.6602    50.9814    23.2274 H            1 ATP301   0.0000
    40 H9          18.7881    53.2599    22.5101 H            1 ATP301   0.0000
    41 H10         15.1957    48.2039    22.6250 H            1 ATP301   0.0000
    42 H11         15.2161    49.9277    22.4576 H            1 ATP301   0.0000
    43 H12         19.4709    47.0051    23.5096 H            1 ATP301   0.0000
@<TRIPOS>BOND
     1    1    2      ar
     2    1    3      ar
     3    1    4      ar
     4    1    8       1
     5    5    6      ar
     6    5    7      ar
     7    5    8       1
     8    5   12       1
     9    9   10      ar
    10    9   11      ar
    11    9   12       1
    12    9   13       1
    13   13   14       1
    14   14   15       1
    15   15   16       1
    16   15   17       1
    17   16   21       1
    18   17   18       1
    19   17   19       1
    20   19   20       1
    21   19   21       1
    22   21   22       1
    23   22   23       1
    24   22   31       1
    25   23   24       2
    26   24   25       1
    27   25   26      ar
    28   25   31      ar
    29   26   27       1
    30   26   28      ar
    31   28   29      ar
    32   29   30      ar
    33   30   31      ar
    34   29   43       1
    35   27   42       1
    36   27   41       1
    37   23   40       1
    38   14   32       1
    39   14   33       1
    40   15   34       1
    41   17   35       1
    42   18   36       1
    43   19   37       1
    44   20   38       1
    45   21   39       1
@<TRIPOS>SUBSTRUCTURE
     1 ATP301      1 GROUP             4 C     ATP     0 **** ATP C 301
