@<TRIPOS>MOLECULE
1i36_NAP_1_ligand
   73    77     1     0     0
SMALL
NO_CHARGES


@<TRIPOS>ATOM
     1 PA          56.2380    34.3610    54.3060 P.3          1 NAP1350   0.0000
     2 O1A         55.6900    34.2240    55.6430 O.co2        1 NAP1350   0.0000
     3 O2A         55.9470    33.7950    53.0050 O.co2        1 NAP1350  -1.0000
     4 O5B         57.0040    35.8350    54.1300 O.3          1 NAP1350   0.0000
     5 C5B         57.1310    36.9870    55.1530 C.3          1 NAP1350   0.0000
     6 C4B         58.5640    37.2080    55.0130 C.3          1 NAP1350   0.0000
     7 O4B         58.6230    38.4760    56.0180 O.3          1 NAP1350   0.0000
     8 C3B         59.4920    36.7700    55.7060 C.3          1 NAP1350   0.0000
     9 O3B         60.0250    36.5310    54.4720 O.3          1 NAP1350   0.0000
    10 C2B         60.5390    37.1550    56.6750 C.3          1 NAP1350   0.0000
    11 O2B         61.7980    37.1750    56.6750 O.3          1 NAP1350   0.0000
    12 C1B         59.9210    38.4190    56.7170 C.3          1 NAP1350   0.0000
    13 N9A         59.8450    38.9520    58.0920 N.pl3        1 NAP1350   0.0000
    14 C8A         59.4710    38.4960    59.3600 C.2          1 NAP1350   0.0000
    15 N7A         59.6780    39.4070    60.2850 N.2          1 NAP1350   0.0000
    16 C5A         60.1970    40.5040    59.6250 C.ar         1 NAP1350   0.0000
    17 C6A         60.6280    41.7990    60.0630 C.ar         1 NAP1350   0.0000
    18 N6A         60.5810    42.1630    61.3460 N.pl3        1 NAP1350   0.0000
    19 N1A         61.1100    42.6850    59.1090 N.ar         1 NAP1350   0.0000
    20 C2A         61.1730    42.3280    57.7940 C.ar         1 NAP1350   0.0000
    21 N3A         60.7920    41.1280    57.3120 N.ar         1 NAP1350   0.0000
    22 C4A         60.3010    40.2550    58.2900 C.ar         1 NAP1350   0.0000
    23 O3          54.7490    35.1090    54.2170 O.3          1 NAP1350   0.0000
    24 PN          53.6820    35.4930    52.9510 P.3          1 NAP1350   0.0000
    25 O1N         52.9170    34.2550    52.5810 O.co2        1 NAP1350   0.0000
    26 O2N         54.5660    36.1070    51.9540 O.co2        1 NAP1350  -1.0000
    27 O5D         52.6460    36.6120    53.3760 O.3          1 NAP1350   0.0000
    28 C5D         53.0780    37.9440    53.7540 C.3          1 NAP1350   0.0000
    29 C4D         51.8860    38.6810    54.3370 C.3          1 NAP1350   0.0000
    30 O4D         50.6960    38.7520    53.4950 O.3          1 NAP1350   0.0000
    31 C3D         51.3600    38.0960    55.6720 C.3          1 NAP1350   0.0000
    32 O3D         50.9590    39.0830    56.6750 O.3          1 NAP1350   0.0000
    33 C2D         50.2050    37.2290    55.2990 C.3          1 NAP1350   0.0000
    34 O2D         49.2840    37.0480    56.3350 O.3          1 NAP1350   0.0000
    35 C1D         49.6420    37.9700    54.0660 C.3          1 NAP1350   0.0000
    36 N1N         48.9160    37.1080    53.1190 N.ar         1 NAP1350   1.0000
    37 C2N         49.5680    36.0330    52.5000 C.ar         1 NAP1350   0.0000
    38 C3N         48.7730    35.2640    51.5850 C.ar         1 NAP1350   0.0000
    39 C7N         49.3230    34.1240    50.8690 C.2          1 NAP1350   0.0000
    40 O7N         48.6220    33.4730    50.0720 O.2          1 NAP1350   0.0000
    41 N7N         50.6120    33.7300    51.0340 N.am         1 NAP1350   0.0000
    42 C4N         47.4250    35.6230    51.3640 C.ar         1 NAP1350   0.0000
    43 C5N         46.8180    36.6650    51.9780 C.ar         1 NAP1350   0.0000
    44 C6N         47.5640    37.4100    52.8530 C.ar         1 NAP1350   0.0000
    45 P2B         62.4540    35.8060    57.3550 P.3          1 NAP1350   0.0000
    46 O1X         62.2600    34.6360    56.4330 O.co2        1 NAP1350   0.0000
    47 O2X         63.8210    36.2380    57.4640 O.co2        1 NAP1350  -1.0000
    48 O3X         61.7210    35.5770    58.5830 O.co2        1 NAP1350  -1.0000
    49 H5B1        56.8780    36.7042    56.0782 H            1 NAP1350   0.0000
    50 H5B2        56.5947    37.7894    54.8913 H            1 NAP1350   0.0000
    51 H4B         58.8401    37.4313    54.0782 H            1 NAP1350   0.0000
    52 H3B         59.1724    35.8763    56.0208 H            1 NAP1350   0.0000
    53 H5          60.9263    36.1100    54.5740 H            1 NAP1350   0.0000
    54 H2B         60.2825    36.7076    57.5318 H            1 NAP1350   0.0000
    55 H1B         60.5280    39.0369    56.2173 H            1 NAP1350   0.0000
    56 H8A         59.0925    37.5883    59.5410 H            1 NAP1350   0.0000
    57 H6A1        60.8894    43.0743    61.6188 H            1 NAP1350   0.0000
    58 H6A2        60.2374    41.5245    62.0346 H            1 NAP1350   0.0000
    59 H2A         61.5253    43.0014    57.1441 H            1 NAP1350   0.0000
    60 H5D1        53.4168    38.4312    52.9491 H            1 NAP1350   0.0000
    61 H5D2        53.8055    37.8828    54.4373 H            1 NAP1350   0.0000
    62 H4D         52.1775    39.6201    54.5188 H            1 NAP1350   0.0000
    63 H3D         52.0742    37.5177    56.0663 H            1 NAP1350   0.0000
    64 H16         51.5065    39.9124    56.5640 H            1 NAP1350   0.0000
    65 H2D         50.5496    36.3354    55.0113 H            1 NAP1350   0.0000
    66 H18         48.5390    36.4602    56.0198 H            1 NAP1350   0.0000
    67 H1D         48.9710    38.6230    54.4172 H            1 NAP1350   0.0000
    68 H2N         50.5265    35.8154    52.6841 H            1 NAP1350   0.0000
    69 H7N1        50.9626    32.9420    50.5280 H            1 NAP1350   0.0000
    70 H7N2        51.2106    34.2279    51.6615 H            1 NAP1350   0.0000
    71 H4N         46.8901    35.0775    50.7187 H            1 NAP1350   0.0000
    72 H5N         45.8587    36.8836    51.7994 H            1 NAP1350   0.0000
    73 H6N         47.1389    38.1882    53.3152 H            1 NAP1350   0.0000
@<TRIPOS>BOND
     1    1    2      ar
     2    1    3      ar
     3    1    4       1
     4    1   23       1
     5    4    5       1
     6    5    6       1
     7    6    7       1
     8    6    8       1
     9   45   48      ar
    10    7   12       1
    11    8    9       1
    12    8   10       1
    13   10   11       1
    14   10   12       1
    15   11   45       1
    16   12   13       1
    17   13   14       1
    18   13   22       1
    19   14   15       2
    20   15   16       1
    21   16   17      ar
    22   16   22      ar
    23   17   18       1
    24   17   19      ar
    25   19   20      ar
    26   20   21      ar
    27   21   22      ar
    28   23   24       1
    29   24   25      ar
    30   24   26      ar
    31   24   27       1
    32   27   28       1
    33   28   29       1
    34   29   30       1
    35   29   31       1
    36   30   35       1
    37   31   32       1
    38   31   33       1
    39   33   34       1
    40   33   35       1
    41   35   36       1
    42   36   37      ar
    43   36   44      ar
    44   37   38      ar
    45   38   39       1
    46   38   42      ar
    47   39   40       2
    48   39   41      am
    49   42   43      ar
    50   43   44      ar
    51   45   46      ar
    52   45   47      ar
    53   43   72       1
    54    5   49       1
    55    5   50       1
    56    6   51       1
    57    8   52       1
    58    9   53       1
    59   10   54       1
    60   12   55       1
    61   14   56       1
    62   18   57       1
    63   18   58       1
    64   20   59       1
    65   44   73       1
    66   28   60       1
    67   28   61       1
    68   29   62       1
    69   31   63       1
    70   32   64       1
    71   33   65       1
    72   34   66       1
    73   35   67       1
    74   37   68       1
    75   41   69       1
    76   41   70       1
    77   42   71       1
@<TRIPOS>SUBSTRUCTURE
     1 NAP1350     1 GROUP             4 A     NAP     0 **** NAP A1350
