@<TRIPOS>MOLECULE
1obb_NAD_2_ligand
   70    74     1     0     0
SMALL
NO_CHARGES


@<TRIPOS>ATOM
     1 PA          15.2050    34.3060   -31.4000 P.3          1 NAD500   0.0000
     2 O1A         16.5290    33.7270   -31.0640 O.co2        1 NAD500   0.0000
     3 O2A         14.3210    33.2400   -31.9570 O.co2        1 NAD500  -1.0000
     4 O5B         15.2990    35.3720   -32.5090 O.3          1 NAD500   0.0000
     5 C5B         16.0300    36.5600   -32.1760 C.3          1 NAD500   0.0000
     6 C4B         16.7600    36.8940   -33.4630 C.3          1 NAD500   0.0000
     7 O4B         18.1580    37.1260   -33.0630 O.3          1 NAD500   0.0000
     8 C3B         16.8910    35.7010   -34.5140 C.3          1 NAD500   0.0000
     9 O3B         16.2640    36.0290   -35.7870 O.3          1 NAD500   0.0000
    10 C2B         18.3910    35.4240   -34.6180 C.3          1 NAD500   0.0000
    11 O2B         18.9030    34.9050   -35.8160 O.3          1 NAD500   0.0000
    12 C1B         18.9120    36.8030   -34.1920 C.3          1 NAD500   0.0000
    13 N9A         20.2860    36.7880   -33.7520 N.pl3        1 NAD500   0.0000
    14 C8A         21.0500    35.8800   -33.0190 C.2          1 NAD500   0.0000
    15 N7A         22.2900    36.2780   -32.8450 N.2          1 NAD500   0.0000
    16 C5A         22.4140    37.4720   -33.4530 C.ar         1 NAD500   0.0000
    17 C6A         23.5360    38.4160   -33.6160 C.ar         1 NAD500   0.0000
    18 N6A         24.7420    38.1820   -33.1250 N.pl3        1 NAD500   0.0000
    19 N1A         23.2290    39.5730   -34.3350 N.ar         1 NAD500   0.0000
    20 C2A         22.0280    39.8630   -34.8680 C.ar         1 NAD500   0.0000
    21 N3A         20.9380    38.9920   -34.7420 N.ar         1 NAD500   0.0000
    22 C4A         21.1750    37.8130   -34.0280 C.ar         1 NAD500   0.0000
    23 O3          14.4930    34.9170   -30.1190 O.3          1 NAD500   0.0000
    24 PN          12.9970    35.5430   -29.8840 P.3          1 NAD500   0.0000
    25 O1N         12.2500    34.5760   -29.0760 O.co2        1 NAD500   0.0000
    26 O2N         12.5280    35.9350   -31.2510 O.co2        1 NAD500  -1.0000
    27 O5D         13.3170    36.8470   -28.9920 O.3          1 NAD500   0.0000
    28 C5D         14.6730    37.3700   -28.9230 C.3          1 NAD500   0.0000
    29 C4D         14.8400    38.2120   -27.7280 C.3          1 NAD500   0.0000
    30 O4D         13.6170    39.0500   -27.4750 O.3          1 NAD500   0.0000
    31 C3D         15.0450    37.3910   -26.4360 C.3          1 NAD500   0.0000
    32 O3D         16.0730    38.0030   -25.6440 O.3          1 NAD500   0.0000
    33 C2D         13.6540    37.4300   -25.7580 C.3          1 NAD500   0.0000
    34 O2D         13.6720    37.1350   -24.3950 O.3          1 NAD500   0.0000
    35 C1D         13.1670    38.8800   -26.1060 C.3          1 NAD500   0.0000
    36 N1N         11.6740    39.1090   -26.0830 N.ar         1 NAD500   1.0000
    37 C2N         11.2890    40.4120   -25.5830 C.ar         1 NAD500   0.0000
    38 C3N         10.0240    40.8360   -25.6280 C.ar         1 NAD500   0.0000
    39 C7N          9.6410    42.2310   -25.1140 C.2          1 NAD500   0.0000
    40 O7N          8.4360    42.5770   -25.1240 O.2          1 NAD500   0.0000
    41 N7N         10.5910    43.0790   -24.6790 N.am         1 NAD500   0.0000
    42 C4N          8.9470    39.9180   -26.2110 C.ar         1 NAD500   0.0000
    43 C5N          9.3500    38.5520   -26.7200 C.ar         1 NAD500   0.0000
    44 C6N         10.7290    38.1830   -26.6380 C.ar         1 NAD500   0.0000
    45 H5B1        16.6760    36.3864   -31.4326 H            1 NAD500   0.0000
    46 H5B2        15.4105    37.2998   -31.9134 H            1 NAD500   0.0000
    47 H4B         16.3714    37.7087   -33.8934 H            1 NAD500   0.0000
    48 H3B         16.4420    34.8914   -34.1359 H            1 NAD500   0.0000
    49 H5          16.7029    36.8390   -36.1758 H            1 NAD500   0.0000
    50 H2B         18.6257    34.7795   -33.8903 H            1 NAD500   0.0000
    51 H7          19.1643    35.6575   -36.4205 H            1 NAD500   0.0000
    52 H1B         18.7760    37.4770   -34.9181 H            1 NAD500   0.0000
    53 H8A         20.6917    35.0168   -32.6633 H            1 NAD500   0.0000
    54 H6A1        25.4745    38.8495   -33.2588 H            1 NAD500   0.0000
    55 H6A2        24.9211    37.3376   -32.6201 H            1 NAD500   0.0000
    56 H2A         21.9105    40.7218   -35.3666 H            1 NAD500   0.0000
    57 H5D1        14.8566    37.9173   -29.7395 H            1 NAD500   0.0000
    58 H5D2        15.3182    36.6072   -28.8809 H            1 NAD500   0.0000
    59 H4D         15.6271    38.8145   -27.8604 H            1 NAD500   0.0000
    60 H3D         15.2949    36.4490   -26.6601 H            1 NAD500   0.0000
    61 H17         16.9261    38.0259   -26.1652 H            1 NAD500   0.0000
    62 H2D         13.0563    36.7737   -26.2185 H            1 NAD500   0.0000
    63 H19         13.1038    36.3308   -24.2205 H            1 NAD500   0.0000
    64 H1D         13.6225    39.5438   -25.5128 H            1 NAD500   0.0000
    65 H2N         11.9893    41.0103   -25.1936 H            1 NAD500   0.0000
    66 H7N1        10.3363    43.9866   -24.3452 H            1 NAD500   0.0000
    67 H7N2        11.5517    42.8016   -24.6896 H            1 NAD500   0.0000
    68 H4N          7.9935    40.2162   -26.2546 H            1 NAD500   0.0000
    69 H5N          8.6716    37.9250   -27.1029 H            1 NAD500   0.0000
    70 H6N         11.0320    37.2877   -26.9645 H            1 NAD500   0.0000
@<TRIPOS>BOND
     1    1    2      ar
     2    1    3      ar
     3    1    4       1
     4    1   23       1
     5    4    5       1
     6    5    6       1
     7    6    7       1
     8    6    8       1
     9    7   12       1
    10    8    9       1
    11    8   10       1
    12   10   11       1
    13   10   12       1
    14   12   13       1
    15   13   14       1
    16   13   22       1
    17   14   15       2
    18   15   16       1
    19   16   17      ar
    20   16   22      ar
    21   17   18       1
    22   17   19      ar
    23   19   20      ar
    24   20   21      ar
    25   21   22      ar
    26   23   24       1
    27   24   25      ar
    28   24   26      ar
    29   24   27       1
    30   27   28       1
    31   28   29       1
    32   29   30       1
    33   29   31       1
    34   30   35       1
    35   31   32       1
    36   31   33       1
    37   33   34       1
    38   33   35       1
    39   35   36       1
    40   36   37      ar
    41   36   44      ar
    42   37   38      ar
    43   38   39       1
    44   38   42      ar
    45   39   40       2
    46   39   41      am
    47   42   43      ar
    48   43   44      ar
    49   44   70       1
    50    5   45       1
    51    5   46       1
    52    6   47       1
    53    8   48       1
    54    9   49       1
    55   10   50       1
    56   11   51       1
    57   12   52       1
    58   14   53       1
    59   18   54       1
    60   18   55       1
    61   20   56       1
    62   43   69       1
    63   28   57       1
    64   28   58       1
    65   29   59       1
    66   31   60       1
    67   32   61       1
    68   33   62       1
    69   34   63       1
    70   35   64       1
    71   37   65       1
    72   41   66       1
    73   41   67       1
    74   42   68       1
@<TRIPOS>SUBSTRUCTURE
     1 NAD500      1 GROUP             4 B     NAD     0 **** NAD B 500
