@<TRIPOS>MOLECULE
2aaz_CB3_6_ligand
   56    58     1     0     0
SMALL
NO_CHARGES


@<TRIPOS>ATOM
     1 N1          88.5770    39.0660    89.2280 N.2          1 CB32601   0.0000
     2 C2          89.4520    38.2090    88.6100 C.2          1 CB32601   0.0000
     3 NA2         90.2970    37.4390    89.2870 N.pl3        1 CB32601   0.0000
     4 N3          89.4530    38.2140    87.2440 N.pl3        1 CB32601   0.0000
     5 C4          88.6550    39.0680    86.5140 C.2          1 CB32601   0.0000
     6 O4          88.7540    39.1540    85.2010 O.2          1 CB32601   0.0000
     7 C4A         87.6900    39.8550    87.1560 C.ar         1 CB32601   0.0000
     8 C5          86.7250    40.5450    86.4450 C.ar         1 CB32601   0.0000
     9 C6          85.6490    41.2240    87.1510 C.ar         1 CB32601   0.0000
    10 C7          85.6530    41.1700    88.6000 C.ar         1 CB32601   0.0000
    11 C8          86.6380    40.4930    89.3460 C.ar         1 CB32601   0.0000
    12 C8A         87.6800    39.8100    88.5930 C.ar         1 CB32601   0.0000
    13 C9          84.4040    41.6400    86.4600 C.3          1 CB32601   0.0000
    14 N10         84.1010    41.0330    85.1050 N.pl3        1 CB32601   0.0000
    15 C11         83.8610    36.8240    84.4150 C.ar         1 CB32601   0.0000
    16 C12         83.7350    37.2970    85.7480 C.ar         1 CB32601   0.0000
    17 C13         83.7930    38.6780    85.9540 C.ar         1 CB32601   0.0000
    18 C14         84.0130    39.6400    84.8550 C.ar         1 CB32601   0.0000
    19 C15         84.2340    39.1070    83.5250 C.ar         1 CB32601   0.0000
    20 C16         84.1600    37.7000    83.2950 C.ar         1 CB32601   0.0000
    21 C           83.4300    35.4950    84.2410 C.2          1 CB32601   0.0000
    22 O           83.4730    34.7200    85.2050 O.2          1 CB32601   0.0000
    23 N           83.0100    35.1230    83.0330 N.am         1 CB32601   0.0000
    24 CA          82.8180    33.6670    82.8250 C.3          1 CB32601   0.0000
    25 CB          81.3360    33.3470    82.6180 C.3          1 CB32601   0.0000
    26 CG          80.3950    34.1960    83.4000 C.3          1 CB32601   0.0000
    27 CD          78.9550    34.0240    82.9470 C.2          1 CB32601   0.0000
    28 OE1         78.0880    34.6090    83.6210 O.co2        1 CB32601   0.0000
    29 OE2         78.6920    33.3110    81.9390 O.co2        1 CB32601  -1.0000
    30 CT          83.4870    33.3150    81.5090 C.2          1 CB32601   0.0000
    31 O1          83.7070    34.2340    80.6990 O.co2        1 CB32601   0.0000
    32 O2          83.7140    32.1080    81.2930 O.co2        1 CB32601  -1.0000
    33 CP1         84.0610    42.0060    83.9360 C.3          1 CB32601   0.0000
    34 CP2         85.4050    42.0850    83.3150 C.1          1 CB32601   0.0000
    35 CP3         86.4850    42.0800    82.7860 C.1          1 CB32601   0.0000
    36 HA21        90.9187    36.8278    88.7972 H            1 CB32601   0.0000
    37 HA22        90.3113    37.4706    90.2864 H            1 CB32601   0.0000
    38 H3          86.7667    40.5772    85.4464 H            1 CB32601   0.0000
    39 H4          84.9198    41.6367    89.0946 H            1 CB32601   0.0000
    40 H5          86.6221    40.4822    90.3458 H            1 CB32601   0.0000
    41 H6          84.4499    42.6314    86.3374 H            1 CB32601   0.0000
    42 H7          83.6398    41.4138    87.0640 H            1 CB32601   0.0000
    43 H8          83.6092    36.6644    86.5122 H            1 CB32601   0.0000
    44 H9          83.6810    39.0293    86.8835 H            1 CB32601   0.0000
    45 H10         84.4387    39.7263    82.7670 H            1 CB32601   0.0000
    46 H11         84.3111    37.3245    82.3806 H            1 CB32601   0.0000
    47 H12         82.8340    35.7879    82.3071 H            1 CB32601   0.0000
    48 HA          83.2022    33.1377    83.5814 H            1 CB32601   0.0000
    49 HB1         81.1847    32.3938    82.8796 H            1 CB32601   0.0000
    50 HB2         81.1259    33.4636    81.6473 H            1 CB32601   0.0000
    51 HG1         80.6560    35.1547    83.2865 H            1 CB32601   0.0000
    52 HG2         80.4610    33.9446    84.3656 H            1 CB32601   0.0000
    53 HP11        83.7915    42.9113    84.2644 H            1 CB32601   0.0000
    54 HP12        83.3986    41.6864    83.2584 H            1 CB32601   0.0000
    55 HP3         87.3830    42.0758    82.3461 H            1 CB32601   0.0000
    56 H21         90.0520    37.5775    86.7582 H            1 CB32601   0.0000
@<TRIPOS>BOND
     1    1    2       2
     2    1   12       1
     3    2    3       1
     4    2    4       1
     5    4    5       1
     6    5    6       2
     7    5    7       1
     8    7    8      ar
     9    7   12      ar
    10    8    9      ar
    11    9   10      ar
    12    9   13       1
    13   10   11      ar
    14   11   12      ar
    15   13   14       1
    16   14   18       1
    17   14   33       1
    18   15   16      ar
    19   15   20      ar
    20   15   21       1
    21   16   17      ar
    22   17   18      ar
    23   18   19      ar
    24   19   20      ar
    25   21   22       2
    26   21   23      am
    27   23   24       1
    28   24   25       1
    29   24   30       1
    30   25   26       1
    31   26   27       1
    32   27   28      ar
    33   27   29      ar
    34   30   31      ar
    35   30   32      ar
    36   33   34       1
    37   34   35       3
    38   35   55       1
    39    3   36       1
    40    3   37       1
    41    8   38       1
    42   10   39       1
    43   11   40       1
    44   13   41       1
    45   13   42       1
    46   16   43       1
    47   17   44       1
    48   19   45       1
    49   20   46       1
    50   23   47       1
    51   24   48       1
    52   25   49       1
    53   25   50       1
    54   26   51       1
    55   26   52       1
    56    4   56       1
    57   33   54       1
    58   33   53       1
@<TRIPOS>SUBSTRUCTURE
     1 CB32601     1 GROUP             4 F     CB3     0 **** CB3 F2601
