@<TRIPOS>MOLECULE
1vea_HBN_1_ligand
   35    37     1     0     0
SMALL
NO_CHARGES


@<TRIPOS>ATOM
     1 C1          47.5760  -104.1540    85.8410 C.ar         1 HBN1001   0.0000
     2 C2          48.7270  -103.3370    85.8210 C.ar         1 HBN1001   0.0000
     3 C3          49.0690  -102.5490    86.9540 C.ar         1 HBN1001   0.0000
     4 C4          48.2600  -102.5680    88.1270 C.ar         1 HBN1001   0.0000
     5 C4A         47.0960  -103.3810    88.1770 C.ar         1 HBN1001   0.0000
     6 C8A         46.7520  -104.1930    86.9960 C.ar         1 HBN1001   0.0000
     7 C8          45.6150  -104.9930    87.0380 C.ar         1 HBN1001   0.0000
     8 C7          44.7720  -105.0540    88.1830 C.ar         1 HBN1001   0.0000
     9 C6          45.0930  -104.2690    89.3340 C.ar         1 HBN1001   0.0000
    10 C5          46.2500  -103.4340    89.3320 C.ar         1 HBN1001   0.0000
    11 N1          43.7410  -105.8130    88.1690 N.am         1 HBN1001   0.0000
    12 N           40.7010  -107.8190    89.1320 N.pl3        1 HBN1001   0.0000
    13 CA          41.8840  -107.4200    88.3920 C.2          1 HBN1001   0.0000
    14 C           43.0920  -106.7670    89.0460 C.2          1 HBN1001   0.0000
    15 O           43.4620  -107.0920    90.1560 O.2          1 HBN1001   0.0000
    16 CB          42.0380  -107.6090    87.0730 C.2          1 HBN1001   0.0000
    17 CG          41.2440  -108.1990    85.9550 C.2          1 HBN1001   0.0000
    18 ND1         41.6720  -108.0770    84.6490 N.pl3        1 HBN1001   0.0000
    19 CD2         40.0600  -108.9180    86.0510 C.2          1 HBN1001   0.0000
    20 CE1         40.6730  -108.7600    84.0420 C.2          1 HBN1001   0.0000
    21 NE2         39.6590  -109.3010    84.7860 N.2          1 HBN1001   0.0000
    22 H1          47.3410  -104.7057    85.0408 H            1 HBN1001   0.0000
    23 H2          49.3051  -103.3123    85.0054 H            1 HBN1001   0.0000
    24 H3          49.8871  -101.9745    86.9274 H            1 HBN1001   0.0000
    25 H4          48.5121  -102.0081    88.9163 H            1 HBN1001   0.0000
    26 H5          45.3820  -105.5439    86.2366 H            1 HBN1001   0.0000
    27 H6          44.5053  -104.3052    90.1423 H            1 HBN1001   0.0000
    28 H7          46.4707  -102.8849    90.1381 H            1 HBN1001   0.0000
    29 H8          43.2412  -105.7215    87.3077 H            1 HBN1001   0.0000
    30 H9          39.9326  -108.2451    88.6545 H            1 HBN1001   0.0000
    31 H10         40.6543  -107.6678    90.1194 H            1 HBN1001   0.0000
    32 HB          42.9198  -107.2622    86.7534 H            1 HBN1001   0.0000
    33 HD2         39.5750  -109.1254    86.9005 H            1 HBN1001   0.0000
    34 HE1         40.6758  -108.8696    83.0480 H            1 HBN1001   0.0000
    35 HD1         42.4763  -107.6220    84.2667 H            1 HBN1001   0.0000
@<TRIPOS>BOND
     1    1    2      ar
     2    1    6      ar
     3    2    3      ar
     4    3    4      ar
     5    4    5      ar
     6    5    6      ar
     7    5   10      ar
     8    6    7      ar
     9    7    8      ar
    10    8    9      ar
    11    8   11       1
    12    9   10      ar
    13   11   14      am
    14   12   13       1
    15   13   14       1
    16   13   16       2
    17   14   15       2
    18   16   17       1
    19   17   18       1
    20   17   19       2
    21   18   20       1
    22   19   21       1
    23   20   21       2
    24    1   22       1
    25    2   23       1
    26    3   24       1
    27    4   25       1
    28    7   26       1
    29    9   27       1
    30   10   28       1
    31   11   29       1
    32   12   30       1
    33   12   31       1
    34   16   32       1
    35   20   34       1
    36   19   33       1
    37   18   35       1
@<TRIPOS>SUBSTRUCTURE
     1 HBN1001     1 GROUP             4 B     HBN     0 **** HBN B1001
