@<TRIPOS>MOLECULE
5cpm_FNR_1_ligand
   50    52     1     0     0
SMALL
NO_CHARGES


@<TRIPOS>ATOM
     1 C9A        -32.4080   112.2980   176.9440 C.ar         1 FNR402   0.0000
     2 N10        -32.9690   110.9530   176.9220 N.pl3        1 FNR402   0.0000
     3 CAA        -33.1910   110.2030   178.1540 C.2          1 FNR402   0.0000
     4 N1         -33.4890   108.9080   178.0860 N.2          1 FNR402   0.0000
     5 C2         -33.8360   108.2710   179.2390 C.2          1 FNR402   0.0000
     6 O2         -34.1920   107.1310   179.1810 O.2          1 FNR402   0.0000
     7 N3         -33.7920   108.9480   180.4350 N.pl3        1 FNR402   0.0000
     8 C4         -33.3950   110.2200   180.4960 C.2          1 FNR402   0.0000
     9 O4         -33.3600   110.8100   181.5470 O.2          1 FNR402   0.0000
    10 C4A        -32.8620   110.7660   179.3500 C.2          1 FNR402   0.0000
    11 N5         -32.2760   112.1060   179.3930 N.2          1 FNR402   0.0000
    12 C5A        -32.0750   112.8560   178.1550 C.ar         1 FNR402   0.0000
    13 C6         -31.8520   114.2450   178.2400 C.ar         1 FNR402   0.0000
    14 C7         -31.9210   115.0190   177.0870 C.ar         1 FNR402   0.0000
    15 C7M        -31.8050   116.5340   177.2840 C.3          1 FNR402   0.0000
    16 C8         -32.0920   114.3940   175.8530 C.ar         1 FNR402   0.0000
    17 C8M        -32.1630   115.2500   174.5940 C.3          1 FNR402   0.0000
    18 C9         -32.2030   113.0150   175.7590 C.ar         1 FNR402   0.0000
    19 C1'        -33.3700   110.3550   175.6500 C.3          1 FNR402   0.0000
    20 C2'        -34.7840   110.8770   175.3120 C.3          1 FNR402   0.0000
    21 O2'        -35.7300   110.4040   176.2390 O.3          1 FNR402   0.0000
    22 C3'        -35.2290   110.5180   173.8860 C.3          1 FNR402   0.0000
    23 O3'        -35.2380   109.1120   173.7050 O.3          1 FNR402   0.0000
    24 C4'        -34.3090   111.1730   172.8470 C.3          1 FNR402   0.0000
    25 O4'        -34.1560   112.5660   173.0430 O.3          1 FNR402   0.0000
    26 C5'        -34.8310   110.9240   171.4320 C.3          1 FNR402   0.0000
    27 O5'        -36.1010   111.4820   171.2350 O.3          1 FNR402   0.0000
    28 P          -36.2630   112.9190   170.4540 P.3          1 FNR402   0.0000
    29 O1P        -35.4520   113.9270   171.2310 O.co2        1 FNR402   0.0000
    30 O2P        -35.7130   112.7690   169.0550 O.co2        1 FNR402  -1.0000
    31 O3P        -37.7320   113.2360   170.4420 O.co2        1 FNR402  -1.0000
    32 H1         -34.0628   108.4778   181.2750 H            1 FNR402   0.0000
    33 H2         -31.6460   114.6700   179.1215 H            1 FNR402   0.0000
    34 H7M1       -31.8668   116.9912   176.3968 H            1 FNR402   0.0000
    35 H7M2       -32.5469   116.8511   177.8748 H            1 FNR402   0.0000
    36 H7M3       -30.9256   116.7485   177.7090 H            1 FNR402   0.0000
    37 H8M1       -32.2864   114.6599   173.7962 H            1 FNR402   0.0000
    38 H8M2       -32.9348   115.8820   174.6637 H            1 FNR402   0.0000
    39 H8M3       -31.3143   115.7698   174.4960 H            1 FNR402   0.0000
    40 H9         -32.1389   112.5493   174.8764 H            1 FNR402   0.0000
    41 H1'1       -33.3852   109.3585   175.7317 H            1 FNR402   0.0000
    42 H1'2       -32.7278   110.6208   174.9310 H            1 FNR402   0.0000
    43 H2'        -34.7638   111.8744   175.3814 H            1 FNR402   0.0000
    44 H13        -35.4832   110.7168   177.1562 H            1 FNR402   0.0000
    45 H3'        -36.1580   110.8613   173.7480 H            1 FNR402   0.0000
    46 H15        -34.3183   108.7503   173.8580 H            1 FNR402   0.0000
    47 H4'        -33.4064   110.7492   172.9225 H            1 FNR402   0.0000
    48 H17        -34.4783   113.0541   172.2319 H            1 FNR402   0.0000
    49 H5'1       -34.8841   109.9376   171.2765 H            1 FNR402   0.0000
    50 H5'2       -34.1945   111.3309   170.7768 H            1 FNR402   0.0000
@<TRIPOS>BOND
     1    1    2       1
     2    1   12      ar
     3    1   18      ar
     4    2    3       1
     5    2   19       1
     6    3    4       2
     7    3   10       1
     8    4    5       1
     9    5    6       2
    10    5    7       1
    11    7    8       1
    12    8    9       2
    13    8   10       1
    14   10   11       2
    15   11   12       1
    16   12   13      ar
    17   13   14      ar
    18   14   15       1
    19   14   16      ar
    20   16   17       1
    21   16   18      ar
    22   19   20       1
    23   20   21       1
    24   20   22       1
    25   22   23       1
    26   22   24       1
    27   24   25       1
    28   24   26       1
    29   26   27       1
    30   27   28       1
    31   28   29      ar
    32   28   30      ar
    33   28   31      ar
    34    7   32       1
    35   13   33       1
    36   15   34       1
    37   15   35       1
    38   15   36       1
    39   17   37       1
    40   17   38       1
    41   17   39       1
    42   18   40       1
    43   19   41       1
    44   19   42       1
    45   20   43       1
    46   21   44       1
    47   22   45       1
    48   23   46       1
    49   24   47       1
    50   25   48       1
    51   26   49       1
    52   26   50       1
@<TRIPOS>SUBSTRUCTURE
     1 FNR402      1 GROUP             4 A     FNR     0 **** FNR A 402
