@<TRIPOS>MOLECULE
4rsl_FAD_1_ligand
   84    89     1     0     0
SMALL
NO_CHARGES


@<TRIPOS>ATOM
     1 PA          26.9890    49.3060    17.2330 P.3          1 FAD502   0.0000
     2 O1A         27.1920    49.9180    18.6000 O.co2        1 FAD502   0.0000
     3 O2A         28.2040    49.5030    16.3350 O.co2        1 FAD502  -1.0000
     4 O5B         25.7030    49.9490    16.5080 O.3          1 FAD502   0.0000
     5 C5B         24.4140    49.8710    17.0490 C.3          1 FAD502   0.0000
     6 C4B         23.6680    51.1130    16.6060 C.3          1 FAD502   0.0000
     7 O4B         22.3370    51.0820    17.0940 O.3          1 FAD502   0.0000
     8 C3B         24.3030    52.3750    17.1800 C.3          1 FAD502   0.0000
     9 O3B         24.6290    53.2490    16.1170 O.3          1 FAD502   0.0000
    10 C2B         23.2360    52.9960    18.0640 C.3          1 FAD502   0.0000
    11 O2B         23.2160    54.4060    17.9440 O.3          1 FAD502   0.0000
    12 C1B         21.9870    52.4060    17.4390 C.3          1 FAD502   0.0000
    13 N9A         20.7740    52.4280    18.2760 N.pl3        1 FAD502   0.0000
    14 C8A         20.6510    52.2270    19.6200 C.2          1 FAD502   0.0000
    15 N7A         19.3280    52.3400    19.9370 N.2          1 FAD502   0.0000
    16 C5A         18.6190    52.5910    18.8120 C.ar         1 FAD502   0.0000
    17 C6A         17.2630    52.7970    18.5640 C.ar         1 FAD502   0.0000
    18 N6A         16.3930    52.7450    19.5710 N.pl3        1 FAD502   0.0000
    19 N1A         16.8270    53.0520    17.2740 N.ar         1 FAD502   0.0000
    20 C2A         17.7450    53.1130    16.2420 C.ar         1 FAD502   0.0000
    21 N3A         19.0920    52.9080    16.5000 N.ar         1 FAD502   0.0000
    22 C4A         19.5210    52.6540    17.7600 C.ar         1 FAD502   0.0000
    23 N1          35.9700    44.7130    18.0140 N.2          1 FAD502   0.0000
    24 C2          37.0370    44.3020    17.2320 C.2          1 FAD502   0.0000
    25 O2          36.8310    43.5690    16.2510 O.2          1 FAD502   0.0000
    26 N3          38.3230    44.7140    17.5600 N.pl3        1 FAD502   0.0000
    27 C4          38.5360    45.5270    18.6640 C.2          1 FAD502   0.0000
    28 O4          39.6510    45.9190    19.0090 O.2          1 FAD502   0.0000
    29 C4X         37.4690    45.9310    19.4380 C.2          1 FAD502   0.0000
    30 N5          37.7070    46.7440    20.5260 N.2          1 FAD502   0.0000
    31 C5X         36.6650    47.1690    21.3110 C.ar         1 FAD502   0.0000
    32 C6          36.9210    47.9960    22.4010 C.ar         1 FAD502   0.0000
    33 C7          35.8730    48.4340    23.2000 C.ar         1 FAD502   0.0000
    34 C7M         36.1630    49.3250    24.3810 C.3          1 FAD502   0.0000
    35 C8          34.5720    48.0370    22.8900 C.ar         1 FAD502   0.0000
    36 C8M         33.4250    48.4780    23.7470 C.3          1 FAD502   0.0000
    37 C9          34.3220    47.2160    21.7960 C.ar         1 FAD502   0.0000
    38 C9A         35.3700    46.7740    20.9960 C.ar         1 FAD502   0.0000
    39 N10         35.1320    45.9560    19.8980 N.pl3        1 FAD502   0.0000
    40 C10         36.1840    45.5250    19.1160 C.2          1 FAD502   0.0000
    41 C1'         33.7450    45.5000    19.5570 C.3          1 FAD502   0.0000
    42 C2'         33.0840    46.2560    18.4070 C.3          1 FAD502   0.0000
    43 O2'         33.1270    47.6560    18.6160 O.3          1 FAD502   0.0000
    44 C3'         31.6280    45.7840    18.3550 C.3          1 FAD502   0.0000
    45 O3'         31.5810    44.3630    18.3770 O.3          1 FAD502   0.0000
    46 C4'         30.8730    46.2970    17.1310 C.3          1 FAD502   0.0000
    47 O4'         31.1470    47.6730    16.9360 O.3          1 FAD502   0.0000
    48 C5'         29.3870    46.0550    17.3810 C.3          1 FAD502   0.0000
    49 O5'         28.6070    46.5820    16.3370 O.3          1 FAD502   0.0000
    50 P           26.9960    46.5150    16.4390 P.3          1 FAD502   0.0000
    51 O1P         26.3560    46.6570    15.0820 O.co2        1 FAD502   0.0000
    52 O2P         26.5510    45.1960    17.0360 O.co2        1 FAD502  -1.0000
    53 O3P         26.6320    47.7410    17.4400 O.3          1 FAD502   0.0000
    54 H5B1        24.4626    49.8380    18.0473 H            1 FAD502   0.0000
    55 H5B2        23.9491    49.0528    16.7107 H            1 FAD502   0.0000
    56 H4B         23.6601    51.1636    15.6073 H            1 FAD502   0.0000
    57 H3B         25.1175    52.1492    17.7145 H            1 FAD502   0.0000
    58 H5          23.7978    53.4876    15.6148 H            1 FAD502   0.0000
    59 H2B         23.3384    52.7109    19.0170 H            1 FAD502   0.0000
    60 H7          22.5880    54.6693    17.2117 H            1 FAD502   0.0000
    61 H1B         21.7934    52.9074    16.5957 H            1 FAD502   0.0000
    62 H8A         21.3960    52.0320    20.2580 H            1 FAD502   0.0000
    63 H6A1        15.4190    52.8921    19.3984 H            1 FAD502   0.0000
    64 H6A2        16.7137    52.5589    20.4997 H            1 FAD502   0.0000
    65 H2A         17.4378    53.3049    15.3099 H            1 FAD502   0.0000
    66 H13         39.0977    44.4235    16.9983 H            1 FAD502   0.0000
    67 H14         37.8587    48.2745    22.6085 H            1 FAD502   0.0000
    68 H7M1        35.3074    49.5487    24.8478 H            1 FAD502   0.0000
    69 H7M2        36.7742    48.8504    25.0145 H            1 FAD502   0.0000
    70 H7M3        36.5998    50.1669    24.0641 H            1 FAD502   0.0000
    71 H8M1        32.5726    48.1041    23.3813 H            1 FAD502   0.0000
    72 H8M2        33.5604    48.1474    24.6810 H            1 FAD502   0.0000
    73 H8M3        33.3764    49.4768    23.7507 H            1 FAD502   0.0000
    74 H21         33.3840    46.9421    21.5835 H            1 FAD502   0.0000
    75 H1'1        33.1733    45.6097    20.3701 H            1 FAD502   0.0000
    76 H1'2        33.7885    44.5324    19.3082 H            1 FAD502   0.0000
    77 H2'         33.5423    46.0295    17.5476 H            1 FAD502   0.0000
    78 H25         32.3336    48.0824    18.1816 H            1 FAD502   0.0000
    79 H3'         31.1620    46.1231    19.1722 H            1 FAD502   0.0000
    80 H27         31.0656    44.0589    19.1782 H            1 FAD502   0.0000
    81 H4'         31.1618    45.7831    16.3232 H            1 FAD502   0.0000
    82 H29         31.0920    47.8889    15.9611 H            1 FAD502   0.0000
    83 H5'1        29.1241    46.4951    18.2396 H            1 FAD502   0.0000
    84 H5'2        29.2227    45.0708    17.4470 H            1 FAD502   0.0000
@<TRIPOS>BOND
     1    1    2      ar
     2    1    3      ar
     3    1    4       1
     4    1   53       1
     5    4    5       1
     6    5    6       1
     7    6    7       1
     8    6    8       1
     9    7   12       1
    10    8    9       1
    11    8   10       1
    12   10   11       1
    13   10   12       1
    14   12   13       1
    15   13   14       1
    16   13   22       1
    17   14   15       2
    18   15   16       1
    19   16   17      ar
    20   16   22      ar
    21   17   18       1
    22   17   19      ar
    23   19   20      ar
    24   20   21      ar
    25   21   22      ar
    26   23   24       1
    27   23   40       2
    28   24   25       2
    29   24   26       1
    30   26   27       1
    31   27   28       2
    32   27   29       1
    33   29   30       2
    34   29   40       1
    35   30   31       1
    36   31   32      ar
    37   31   38      ar
    38   32   33      ar
    39   33   34       1
    40   33   35      ar
    41   35   36       1
    42   35   37      ar
    43   37   38      ar
    44   38   39       1
    45   39   40       1
    46   39   41       1
    47   41   42       1
    48   42   43       1
    49   42   44       1
    50   44   45       1
    51   44   46       1
    52   46   47       1
    53   46   48       1
    54   48   49       1
    55   49   50       1
    56   50   51      ar
    57   50   52      ar
    58   50   53       1
    59   48   84       1
    60    5   54       1
    61    5   55       1
    62    6   56       1
    63    8   57       1
    64    9   58       1
    65   10   59       1
    66   11   60       1
    67   12   61       1
    68   14   62       1
    69   18   63       1
    70   18   64       1
    71   20   65       1
    72   26   66       1
    73   32   67       1
    74   34   68       1
    75   34   69       1
    76   34   70       1
    77   36   71       1
    78   36   72       1
    79   36   73       1
    80   37   74       1
    81   41   75       1
    82   41   76       1
    83   42   77       1
    84   43   78       1
    85   44   79       1
    86   45   80       1
    87   46   81       1
    88   47   82       1
    89   48   83       1
@<TRIPOS>SUBSTRUCTURE
     1 FAD502      1 GROUP             4 A     FAD     0 **** FAD A 502
