@<TRIPOS>MOLECULE
3td7_FAD_1_ligand
   84    89     1     0     0
SMALL
NO_CHARGES


@<TRIPOS>ATOM
     1 PA           2.4160   -49.2360     7.3490 P.3          1 FAD334   0.0000
     2 O1A          2.6090   -48.6850     5.9750 O.co2        1 FAD334   0.0000
     3 O2A          3.6040   -49.2770     8.2570 O.co2        1 FAD334  -1.0000
     4 O5B          1.3070   -48.4510     8.1370 O.3          1 FAD334   0.0000
     5 C5B          0.1170   -48.0310     7.5070 C.3          1 FAD334   0.0000
     6 C4B         -0.3020   -46.7870     8.2120 C.3          1 FAD334   0.0000
     7 O4B          0.5210   -45.7310     7.7680 O.3          1 FAD334   0.0000
     8 C3B         -1.7230   -46.3120     7.9040 C.3          1 FAD334   0.0000
     9 O3B         -2.5770   -46.8520     8.9210 O.3          1 FAD334   0.0000
    10 C2B         -1.6450   -44.8420     7.9640 C.3          1 FAD334   0.0000
    11 O2B         -2.2310   -44.1830     9.0380 O.3          1 FAD334   0.0000
    12 C1B         -0.1260   -44.5110     7.9940 C.3          1 FAD334   0.0000
    13 N9A          0.3420   -43.5820     7.0190 N.pl3        1 FAD334   0.0000
    14 C8A          0.4830   -43.7190     5.6080 C.2          1 FAD334   0.0000
    15 N7A          1.0130   -42.6810     5.0240 N.2          1 FAD334   0.0000
    16 C5A          1.3180   -41.8060     6.0610 C.ar         1 FAD334   0.0000
    17 C6A          1.9610   -40.5630     6.1070 C.ar         1 FAD334   0.0000
    18 N6A          2.4540   -39.9740     5.0180 N.pl3        1 FAD334   0.0000
    19 N1A          2.1730   -39.9860     7.3580 N.ar         1 FAD334   0.0000
    20 C2A          1.8250   -40.6370     8.4960 C.ar         1 FAD334   0.0000
    21 N3A          1.1940   -41.8840     8.5460 N.ar         1 FAD334   0.0000
    22 C4A          0.9510   -42.3390     7.2090 C.ar         1 FAD334   0.0000
    23 N1           9.9950   -50.7750     3.4830 N.2          1 FAD334   0.0000
    24 C2          10.5490   -51.1470     2.2730 C.2          1 FAD334   0.0000
    25 O2          10.1960   -52.1960     1.6900 O.2          1 FAD334   0.0000
    26 N3          11.4890   -50.3140     1.6840 N.pl3        1 FAD334   0.0000
    27 C4          11.9420   -49.0770     2.2160 C.2          1 FAD334   0.0000
    28 O4          12.7310   -48.3510     1.5410 O.2          1 FAD334   0.0000
    29 C4X         11.4260   -48.7670     3.4580 C.2          1 FAD334   0.0000
    30 N5          11.9290   -47.5610     4.0880 N.2          1 FAD334   0.0000
    31 C5X         11.4300   -47.2800     5.3920 C.ar         1 FAD334   0.0000
    32 C6          11.9520   -46.1870     6.1360 C.ar         1 FAD334   0.0000
    33 C7          11.5020   -45.8420     7.4490 C.ar         1 FAD334   0.0000
    34 C7M         12.0690   -44.5970     8.1560 C.3          1 FAD334   0.0000
    35 C8          10.4810   -46.6610     8.0460 C.ar         1 FAD334   0.0000
    36 C8M          9.9410   -46.3940     9.4450 C.3          1 FAD334   0.0000
    37 C9           9.9210   -47.7360     7.3480 C.ar         1 FAD334   0.0000
    38 C9A         10.3770   -48.0880     6.0520 C.ar         1 FAD334   0.0000
    39 N10          9.8780   -49.2450     5.2500 N.pl3        1 FAD334   0.0000
    40 C10         10.4580   -49.6130     4.0630 C.2          1 FAD334   0.0000
    41 C1'          8.6850   -49.8980     5.6910 C.3          1 FAD334   0.0000
    42 C2'          7.4170   -49.5170     4.9810 C.3          1 FAD334   0.0000
    43 O2'          7.4070   -48.0750     4.9160 O.3          1 FAD334   0.0000
    44 C3'          6.1390   -49.9680     5.6330 C.3          1 FAD334   0.0000
    45 O3'          6.0360   -49.5760     6.9980 O.3          1 FAD334   0.0000
    46 C4'          5.9080   -51.4770     5.6530 C.3          1 FAD334   0.0000
    47 O4'          5.9230   -51.9100     4.2570 O.3          1 FAD334   0.0000
    48 C5'          4.6790   -51.9440     6.3190 C.3          1 FAD334   0.0000
    49 O5'          3.5090   -51.5660     5.5790 O.3          1 FAD334   0.0000
    50 P            2.0510   -51.8510     6.1280 P.3          1 FAD334   0.0000
    51 O1P          1.1660   -51.7260     4.9730 O.co2        1 FAD334   0.0000
    52 O2P          2.0570   -53.0990     6.9420 O.co2        1 FAD334  -1.0000
    53 O3P          1.8320   -50.6850     7.1740 O.3          1 FAD334   0.0000
    54 H5B1        -0.5889   -48.7341     7.5931 H            1 FAD334   0.0000
    55 H5B2         0.2837   -47.8428     6.5391 H            1 FAD334   0.0000
    56 H4B         -0.1934   -46.9064     9.1989 H            1 FAD334   0.0000
    57 H3B         -2.0121   -46.6170     6.9966 H            1 FAD334   0.0000
    58 H5          -2.2803   -46.5199     9.8164 H            1 FAD334   0.0000
    59 H2B         -2.0310   -44.4717     7.1191 H            1 FAD334   0.0000
    60 H7          -3.1807   -43.9624     8.8158 H            1 FAD334   0.0000
    61 H1B          0.1168   -44.1773     8.9049 H            1 FAD334   0.0000
    62 H8A          0.2005   -44.5387     5.1097 H            1 FAD334   0.0000
    63 H6A1         2.9067   -39.0854     5.0917 H            1 FAD334   0.0000
    64 H6A2         2.3712   -40.4206     4.1271 H            1 FAD334   0.0000
    65 H2A          2.0358   -40.1910     9.3659 H            1 FAD334   0.0000
    66 H13         11.8804   -50.6088     0.8123 H            1 FAD334   0.0000
    67 H14         12.6711   -45.6305     5.7198 H            1 FAD334   0.0000
    68 H7M1        11.6483   -44.5056     9.0586 H            1 FAD334   0.0000
    69 H7M2        13.0591   -44.6935     8.2580 H            1 FAD334   0.0000
    70 H7M3        11.8678   -43.7834     7.6106 H            1 FAD334   0.0000
    71 H8M1         9.2426   -47.0740     9.6681 H            1 FAD334   0.0000
    72 H8M2        10.6877   -46.4534    10.1075 H            1 FAD334   0.0000
    73 H8M3         9.5382   -45.4793     9.4779 H            1 FAD334   0.0000
    74 H21          9.1857   -48.2660     7.7705 H            1 FAD334   0.0000
    75 H1'1         8.5649   -49.6903     6.6618 H            1 FAD334   0.0000
    76 H1'2         8.8156   -50.8826     5.5744 H            1 FAD334   0.0000
    77 H2'          7.4484   -49.8804     4.0499 H            1 FAD334   0.0000
    78 H25          8.3472   -47.7365     4.8790 H            1 FAD334   0.0000
    79 H3'          5.3786   -49.5491     5.1367 H            1 FAD334   0.0000
    80 H27          5.0735   -49.4454     7.2356 H            1 FAD334   0.0000
    81 H4'          6.6874   -51.9009     6.1144 H            1 FAD334   0.0000
    82 H29          6.8570   -52.1505     3.9926 H            1 FAD334   0.0000
    83 H5'1         4.6306   -51.5411     7.2330 H            1 FAD334   0.0000
    84 H5'2         4.7084   -52.9407     6.3951 H            1 FAD334   0.0000
@<TRIPOS>BOND
     1    1    2      ar
     2    1    3      ar
     3    1    4       1
     4    1   53       1
     5    4    5       1
     6    5    6       1
     7    6    7       1
     8    6    8       1
     9    7   12       1
    10    8    9       1
    11    8   10       1
    12   10   11       1
    13   10   12       1
    14   12   13       1
    15   13   14       1
    16   13   22       1
    17   14   15       2
    18   15   16       1
    19   16   17      ar
    20   16   22      ar
    21   17   18       1
    22   17   19      ar
    23   19   20      ar
    24   20   21      ar
    25   21   22      ar
    26   23   24       1
    27   23   40       2
    28   24   25       2
    29   24   26       1
    30   26   27       1
    31   27   28       2
    32   27   29       1
    33   29   30       2
    34   29   40       1
    35   30   31       1
    36   31   32      ar
    37   31   38      ar
    38   32   33      ar
    39   33   34       1
    40   33   35      ar
    41   35   36       1
    42   35   37      ar
    43   37   38      ar
    44   38   39       1
    45   39   40       1
    46   39   41       1
    47   41   42       1
    48   42   43       1
    49   42   44       1
    50   44   45       1
    51   44   46       1
    52   46   47       1
    53   46   48       1
    54   48   49       1
    55   49   50       1
    56   50   51      ar
    57   50   52      ar
    58   50   53       1
    59   48   84       1
    60    5   54       1
    61    5   55       1
    62    6   56       1
    63    8   57       1
    64    9   58       1
    65   10   59       1
    66   11   60       1
    67   12   61       1
    68   14   62       1
    69   18   63       1
    70   18   64       1
    71   20   65       1
    72   26   66       1
    73   32   67       1
    74   34   68       1
    75   34   69       1
    76   34   70       1
    77   36   71       1
    78   36   72       1
    79   36   73       1
    80   37   74       1
    81   41   75       1
    82   41   76       1
    83   42   77       1
    84   43   78       1
    85   44   79       1
    86   45   80       1
    87   46   81       1
    88   47   82       1
    89   48   83       1
@<TRIPOS>SUBSTRUCTURE
     1 FAD334      1 GROUP             4 A     FAD     0 **** FAD A 334
