@<TRIPOS>MOLECULE
4c1i_EH9_1_ligand
   43    44     1     0     0
SMALL
NO_CHARGES


@<TRIPOS>ATOM
     1 C1          20.3700   -27.7750     5.1310 C.ar         1 EH91906   0.0000
     2 C2          20.5970   -26.8600     6.1550 C.ar         1 EH91906   0.0000
     3 C3          21.3670   -25.7460     5.8800 C.ar         1 EH91906   0.0000
     4 C5          21.6290   -26.4660     3.6920 C.ar         1 EH91906   0.0000
     5 C14         20.7450   -25.6690     7.9570 C.2          1 EH91906   0.0000
     6 N4          21.8670   -25.5760     4.6490 N.ar         1 EH91906   0.0000
     7 N6          20.9000   -27.5490     3.9200 N.ar         1 EH91906   0.0000
     8 N13         21.4270   -25.0390     6.9990 N.pl3        1 EH91906   0.0000
     9 N15         20.2310   -26.7910     7.4340 N.2          1 EH91906   0.0000
    10 C34         27.6320   -26.5190    11.4370 C.3          1 EH91906   0.0000
    11 N24         19.6350   -28.8590     5.3390 N.pl3        1 EH91906   0.0000
    12 C31         26.7170   -25.3360    11.1210 C.3          1 EH91906   0.0000
    13 C30         25.9690   -25.5130     9.7990 C.3          1 EH91906   0.0000
    14 C28         25.2210   -24.2260     9.4600 C.3          1 EH91906   0.0000
    15 C26         24.3850   -24.3380     8.1830 C.3          1 EH91906   0.0000
    16 C21         22.9840   -23.7470     8.4090 C.3          1 EH91906   0.0000
    17 O38         21.4440   -21.5450     8.0190 O.3          1 EH91906   0.0000
    18 C40         19.7620   -22.8470     6.8020 C.3          1 EH91906   0.0000
    19 C20         22.1640   -23.7660     7.1240 C.3          1 EH91906   0.0000
    20 C36         21.2440   -22.5110     6.9660 C.3          1 EH91906   0.0000
    21 H1          22.0084   -26.3154     2.7791 H            1 EH91906   0.0000
    22 H2          20.6362   -25.3582     8.9012 H            1 EH91906   0.0000
    23 H3          28.0973   -26.3574    12.3073 H            1 EH91906   0.0000
    24 H4          27.0864   -27.3546    11.5009 H            1 EH91906   0.0000
    25 H5          28.3109   -26.6189    10.7096 H            1 EH91906   0.0000
    26 H6          19.4798   -29.5083     4.5945 H            1 EH91906   0.0000
    27 H7          19.2360   -29.0271     6.2404 H            1 EH91906   0.0000
    28 H8          27.2724   -24.5062    11.0669 H            1 EH91906   0.0000
    29 H9          26.0479   -25.2419    11.8582 H            1 EH91906   0.0000
    30 H10         25.3158   -26.2654     9.8839 H            1 EH91906   0.0000
    31 H11         26.6230   -25.7198     9.0713 H            1 EH91906   0.0000
    32 H12         25.8890   -23.4915     9.3400 H            1 EH91906   0.0000
    33 H13         24.6120   -24.0017    10.2208 H            1 EH91906   0.0000
    34 H14         24.2995   -25.3012     7.9281 H            1 EH91906   0.0000
    35 H15         24.8394   -23.8372     7.4463 H            1 EH91906   0.0000
    36 H16         23.0754   -22.8022     8.7237 H            1 EH91906   0.0000
    37 H17         22.5110   -24.2862     9.1058 H            1 EH91906   0.0000
    38 H18         21.4007   -20.6218     7.6371 H            1 EH91906   0.0000
    39 H19         19.6513   -23.5169     6.0678 H            1 EH91906   0.0000
    40 H20         19.4101   -23.2282     7.6569 H            1 EH91906   0.0000
    41 H21         19.2550   -22.0158     6.5740 H            1 EH91906   0.0000
    42 H22         22.8174   -23.7385     6.3675 H            1 EH91906   0.0000
    43 H23         21.5251   -22.0627     6.1175 H            1 EH91906   0.0000
@<TRIPOS>BOND
     1    1    2      ar
     2    1    7      ar
     3    1   11       1
     4    2    3      ar
     5    2    9       1
     6    3    6      ar
     7    3    8       1
     8    4    6      ar
     9    4    7      ar
    10    5    8       1
    11    5    9       2
    12    8   19       1
    13   10   12       1
    14   12   13       1
    15   13   14       1
    16   14   15       1
    17   15   16       1
    18   16   19       1
    19   17   20       1
    20   18   20       1
    21   19   20       1
    22    4   21       1
    23    5   22       1
    24   10   23       1
    25   10   24       1
    26   10   25       1
    27   11   26       1
    28   11   27       1
    29   12   28       1
    30   12   29       1
    31   13   30       1
    32   13   31       1
    33   14   32       1
    34   14   33       1
    35   15   34       1
    36   15   35       1
    37   16   36       1
    38   16   37       1
    39   17   38       1
    40   18   39       1
    41   18   40       1
    42   18   41       1
    43   19   42       1
    44   20   43       1
@<TRIPOS>SUBSTRUCTURE
     1 EH91906     1 GROUP             4 A     EH9     0 **** EH9 A1906
