@<TRIPOS>MOLECULE
2aly_YSA_1_ligand
   59    62     1     0     0
SMALL
NO_CHARGES


@<TRIPOS>ATOM
     1 CD1         21.0260    66.4670    17.2440 C.ar         1 YSA999   0.0000
     2 CE1         22.3480    66.9330    17.0260 C.ar         1 YSA999   0.0000
     3 CZ          23.4160    66.0150    16.8380 C.ar         1 YSA999   0.0000
     4 OH          24.6440    66.5010    16.6380 O.3          1 YSA999   0.0000
     5 CE2         23.1480    64.6230    16.8650 C.ar         1 YSA999   0.0000
     6 CD2         21.8350    64.1490    17.0810 C.ar         1 YSA999   0.0000
     7 CG          20.7450    65.0580    17.2770 C.ar         1 YSA999   0.0000
     8 CB          19.3880    64.5600    17.5160 C.3          1 YSA999   0.0000
     9 CA          19.1150    64.1410    18.9760 C.3          1 YSA999   0.0000
    10 N           19.9860    63.0590    19.4020 N.4          1 YSA999   1.0000
    11 C           17.6560    63.7700    19.0540 C.2          1 YSA999   0.0000
    12 O           17.3550    62.8590    19.6310 O.2          1 YSA999   0.0000
    13 NAT         16.7330    64.6810    18.3340 N.am         1 YSA999   0.0000
    14 SBI         15.1970    64.2110    18.4390 S.o2         1 YSA999   0.0000
    15 OAD         14.7720    63.8650    19.8090 O.2          1 YSA999   0.0000
    16 OAE         14.4080    65.2630    17.8160 O.2          1 YSA999   0.0000
    17 O5'         15.1390    62.9180    17.4720 O.3          1 YSA999   0.0000
    18 C5'         15.6070    62.9950    16.1000 C.3          1 YSA999   0.0000
    19 C4'         14.6180    62.3620    15.0980 C.3          1 YSA999   0.0000
    20 O4'         13.9710    61.2320    15.7600 O.3          1 YSA999   0.0000
    21 C3'         13.4840    63.2540    14.6930 C.3          1 YSA999   0.0000
    22 O3'         13.8400    64.1540    13.6570 O.3          1 YSA999   0.0000
    23 C2'         12.3350    62.2970    14.3810 C.3          1 YSA999   0.0000
    24 O2'         12.1530    62.1040    12.9850 O.3          1 YSA999   0.0000
    25 C1'         12.6860    61.0120    15.1510 C.3          1 YSA999   0.0000
    26 N9          11.7840    60.7060    16.3330 N.pl3        1 YSA999   0.0000
    27 C8          11.8000    61.3420    17.5690 C.2          1 YSA999   0.0000
    28 N7          10.9520    60.9330    18.4450 N.2          1 YSA999   0.0000
    29 C5          10.2810    59.9260    17.7680 C.ar         1 YSA999   0.0000
    30 C4          10.7700    59.7620    16.4610 C.ar         1 YSA999   0.0000
    31 N3          10.3650    58.8770    15.4950 N.ar         1 YSA999   0.0000
    32 C2           9.3490    58.0760    15.9250 C.ar         1 YSA999   0.0000
    33 N1           8.7490    58.0910    17.1660 N.ar         1 YSA999   0.0000
    34 C6           9.1870    59.0050    18.1200 C.ar         1 YSA999   0.0000
    35 N6           8.6000    59.0270    19.3530 N.pl3        1 YSA999   0.0000
    36 HD1         20.2838    67.1241    17.3757 H            1 YSA999   0.0000
    37 HE1         22.5298    67.9161    17.0045 H            1 YSA999   0.0000
    38 HH          24.7942    67.4895    16.6233 H            1 YSA999   0.0000
    39 HE2         23.8945    63.9715    16.7300 H            1 YSA999   0.0000
    40 HD2         21.6636    63.1639    17.0974 H            1 YSA999   0.0000
    41 HB1         19.2379    63.7649    16.9284 H            1 YSA999   0.0000
    42 HB2         18.7413    65.2824    17.2710 H            1 YSA999   0.0000
    43 HA          19.2748    64.9303    19.5688 H            1 YSA999   0.0000
    44 H9          19.7784    62.8175    20.3500 H            1 YSA999   0.0000
    45 H10         19.8395    62.2625    18.8154 H            1 YSA999   0.0000
    46 HAT         17.0318    65.4966    17.8384 H            1 YSA999   0.0000
    47 H5'1        16.4818    62.5152    16.0328 H            1 YSA999   0.0000
    48 H5'2        15.7351    63.9570    15.8590 H            1 YSA999   0.0000
    49 H4'         15.1099    62.0460    14.2867 H            1 YSA999   0.0000
    50 H3'         13.2217    63.7959    15.4914 H            1 YSA999   0.0000
    51 H16         13.0340    64.3587    13.1017 H            1 YSA999   0.0000
    52 H2'         11.4921    62.6765    14.7625 H            1 YSA999   0.0000
    53 H18         12.2709    61.1358    12.7642 H            1 YSA999   0.0000
    54 H1'         12.7235    60.2305    14.5283 H            1 YSA999   0.0000
    55 H20         12.4412    62.0832    17.7677 H            1 YSA999   0.0000
    56 H21          9.0016    57.4054    15.2696 H            1 YSA999   0.0000
    57 H22          7.8588    58.3901    19.5654 H            1 YSA999   0.0000
    58 H23          8.9114    59.6800    20.0434 H            1 YSA999   0.0000
    59 H24         20.9396    63.3522    19.3339 H            1 YSA999   0.0000
@<TRIPOS>BOND
     1    1    2      ar
     2    1    7      ar
     3    2    3      ar
     4    3    4       1
     5    3    5      ar
     6    5    6      ar
     7    6    7      ar
     8    7    8       1
     9    8    9       1
    10    9   10       1
    11    9   11       1
    12   11   12       2
    13   11   13      am
    14   13   14       1
    15   14   15       2
    16   14   16       2
    17   14   17       1
    18   17   18       1
    19   18   19       1
    20   19   20       1
    21   19   21       1
    22   20   25       1
    23   21   22       1
    24   21   23       1
    25   23   24       1
    26   23   25       1
    27   25   26       1
    28   26   27       1
    29   26   30       1
    30   27   28       2
    31   28   29       1
    32   29   30      ar
    33   29   34      ar
    34   30   31      ar
    35   31   32      ar
    36   32   33      ar
    37   33   34      ar
    38   34   35       1
    39    1   36       1
    40    2   37       1
    41    4   38       1
    42    5   39       1
    43    6   40       1
    44    8   41       1
    45    8   42       1
    46    9   43       1
    47   10   44       1
    48   10   45       1
    49   13   46       1
    50   18   47       1
    51   18   48       1
    52   19   49       1
    53   21   50       1
    54   22   51       1
    55   23   52       1
    56   24   53       1
    57   25   54       1
    58   27   55       1
    59   32   56       1
    60   35   57       1
    61   35   58       1
    62   10   59       1
@<TRIPOS>SUBSTRUCTURE
     1 YSA999      1 GROUP             4 A     YSA     0 **** YSA A 999
