@<TRIPOS>MOLECULE
4nqg_CZH_1_ligand
   55    59     1     0     0
SMALL
NO_CHARGES


@<TRIPOS>ATOM
     1 N1           3.4710   -58.3530    48.5290 N.2          1 CZH201   0.0000
     2 C2           4.1380   -59.7730    48.6300 C.3          1 CZH201   0.0000
     3 C3           3.3490   -60.2920    49.8500 C.2          1 CZH201   0.0000
     4 N4           2.4990   -59.3630    50.1880 N.pl3        1 CZH201   0.0000
     5 C5           1.5620   -59.4730    51.3040 C.2          1 CZH201   0.0000
     6 C6           0.7170   -58.4220    51.5600 C.2          1 CZH201   0.0000
     7 N7           0.8010   -57.2170    50.7790 N.2          1 CZH201   0.0000
     8 C8           1.6540   -57.1400    49.7750 C.2          1 CZH201   0.0000
     9 C9           2.5370   -58.2670    49.5050 C.2          1 CZH201   0.0000
    10 C10          3.8800   -60.5090    47.3210 C.3          1 CZH201   0.0000
    11 C11          4.4880   -61.8660    47.3250 C.ar         1 CZH201   0.0000
    12 C12          5.8620   -62.0300    47.2440 C.ar         1 CZH201   0.0000
    13 C13          6.4160   -63.2990    47.2710 C.ar         1 CZH201   0.0000
    14 C14          5.5870   -64.4070    47.3700 C.ar         1 CZH201   0.0000
    15 C15          4.1970   -64.2850    47.4430 C.ar         1 CZH201   0.0000
    16 C16          3.6470   -62.9940    47.4270 C.ar         1 CZH201   0.0000
    17 O17          6.1460   -65.6560    47.4020 O.3          1 CZH201   0.0000
    18 O18          3.5000   -61.3960    50.3780 O.2          1 CZH201   0.0000
    19 C19         -0.1940   -58.4240    52.7460 C.ar         1 CZH201   0.0000
    20 C20         -1.1820   -57.4440    52.7870 C.ar         1 CZH201   0.0000
    21 C21         -2.0530   -57.3440    53.8810 C.ar         1 CZH201   0.0000
    22 C22         -1.8710   -58.1690    54.9720 C.ar         1 CZH201   0.0000
    23 C23         -0.8420   -59.1100    54.9820 C.ar         1 CZH201   0.0000
    24 C24          0.0020   -59.2500    53.8660 C.ar         1 CZH201   0.0000
    25 O25         -2.6850   -57.9970    56.0700 O.3          1 CZH201   0.0000
    26 C26          1.7800   -55.9250    48.9250 C.3          1 CZH201   0.0000
    27 C27          0.5990   -55.7850    48.0400 C.ar         1 CZH201   0.0000
    28 C28         -0.6060   -55.4120    48.5990 C.ar         1 CZH201   0.0000
    29 C29         -1.7060   -55.2670    47.7850 C.ar         1 CZH201   0.0000
    30 C30         -1.5950   -55.4530    46.4070 C.ar         1 CZH201   0.0000
    31 C31         -0.3750   -55.8110    45.8520 C.ar         1 CZH201   0.0000
    32 C32          0.7190   -55.9730    46.6730 C.ar         1 CZH201   0.0000
    33 O33          5.5000   -59.6690    48.9480 O.3          1 CZH201   0.0000
    34 O34          5.7770   -58.8190    49.8800 O.3          1 CZH201   0.0000
    35 H1           1.5369   -60.2972    51.8697 H            1 CZH201   0.0000
    36 H2           4.2727   -59.9800    46.5687 H            1 CZH201   0.0000
    37 H3           2.8928   -60.5964    47.1873 H            1 CZH201   0.0000
    38 H4           6.4555   -61.2290    47.1658 H            1 CZH201   0.0000
    39 H5           7.4078   -63.4160    47.2194 H            1 CZH201   0.0000
    40 H6           3.6116   -65.0934    47.5048 H            1 CZH201   0.0000
    41 H7           2.6562   -62.8733    47.4881 H            1 CZH201   0.0000
    42 H8           7.1394   -65.7606    47.3542 H            1 CZH201   0.0000
    43 H9          -1.2717   -56.8023    52.0253 H            1 CZH201   0.0000
    44 H10         -2.8005   -56.6798    53.8708 H            1 CZH201   0.0000
    45 H11         -0.7037   -59.6878    55.7864 H            1 CZH201   0.0000
    46 H12          0.7346   -59.9307    53.8693 H            1 CZH201   0.0000
    47 H13         -2.5723   -58.5827    56.8727 H            1 CZH201   0.0000
    48 H14          2.6044   -56.0000    48.3640 H            1 CZH201   0.0000
    49 H15          1.8486   -55.1184    49.5121 H            1 CZH201   0.0000
    50 H16         -0.6791   -55.2491    49.5829 H            1 CZH201   0.0000
    51 H17         -2.5909   -55.0267    48.1840 H            1 CZH201   0.0000
    52 H18         -2.3945   -55.3283    45.8194 H            1 CZH201   0.0000
    53 H19         -0.2907   -55.9501    44.8653 H            1 CZH201   0.0000
    54 H20          1.6030   -56.2272    46.2807 H            1 CZH201   0.0000
    55 H21          6.2201   -59.2920    50.6416 H            1 CZH201   0.0000
@<TRIPOS>BOND
     1    1    2       1
     2    1    9       2
     3    2    3       1
     4    2   10       1
     5    2   33       1
     6    3    4       1
     7    3   18       2
     8    4    5       1
     9    4    9       1
    10    5    6       2
    11    6    7       1
    12    6   19       1
    13    7    8       2
    14    8    9       1
    15    8   26       1
    16   10   11       1
    17   11   12      ar
    18   11   16      ar
    19   12   13      ar
    20   13   14      ar
    21   14   15      ar
    22   14   17       1
    23   15   16      ar
    24   19   20      ar
    25   19   24      ar
    26   20   21      ar
    27   21   22      ar
    28   22   23      ar
    29   22   25       1
    30   23   24      ar
    31   26   27       1
    32   27   28      ar
    33   27   32      ar
    34   28   29      ar
    35   29   30      ar
    36   30   31      ar
    37   31   32      ar
    38   33   34       1
    39    5   35       1
    40   10   36       1
    41   10   37       1
    42   12   38       1
    43   13   39       1
    44   15   40       1
    45   16   41       1
    46   17   42       1
    47   20   43       1
    48   21   44       1
    49   23   45       1
    50   24   46       1
    51   25   47       1
    52   26   48       1
    53   26   49       1
    54   28   50       1
    55   29   51       1
    56   30   52       1
    57   31   53       1
    58   32   54       1
    59   34   55       1
@<TRIPOS>SUBSTRUCTURE
     1 CZH201      1 GROUP             4 A     CZH     0 **** CZH A 201
