@<TRIPOS>MOLECULE
4nv1_0FX_3_ligand
   61    63     1     0     0
SMALL
NO_CHARGES


@<TRIPOS>ATOM
     1 O4P        -33.4100     9.3160    47.3600 O.co2        1 0FX301   0.0000
     2 P2         -33.0260     9.2870    48.8620 P.3          1 0FX301   0.0000
     3 O3P        -32.0500    10.1980    49.5750 O.co2        1 0FX301  -1.0000
     4 O1G        -34.1270     8.5440    49.7370 O.3          1 0FX301   0.0000
     5 C1G        -35.3970     9.1140    49.9510 C.3          1 0FX301   0.0000
     6 C2G        -36.0610     7.9850    50.7230 C.3          1 0FX301   0.0000
     7 O2G        -35.1750     7.4140    51.6910 O.3          1 0FX301   0.0000
     8 C3G        -36.5290     6.8780    49.7990 C.3          1 0FX301   0.0000
     9 O3G        -37.2930     6.0300    50.6830 O.3          1 0FX301   0.0000
    10 C4G        -37.3300     7.5090    48.6430 C.3          1 0FX301   0.0000
    11 N4A        -37.9110     6.5170    47.7500 N.4          1 0FX301   1.0000
    12 C5G        -36.5070     8.5140    47.8280 C.3          1 0FX301   0.0000
    13 C6G        -37.3420     9.1650    46.7320 C.3          1 0FX301   0.0000
    14 O5G        -36.0470     9.5150    48.7380 O.3          1 0FX301   0.0000
    15 OPP        -31.9770     8.1920    49.3550 O.3          1 0FX301   0.0000
    16 P          -31.7480     6.6490    49.0880 P.3          1 0FX301   0.0000
    17 O1P        -32.7070     5.6980    49.7740 O.co2        1 0FX301   0.0000
    18 O2P        -30.2530     6.8140    49.3330 O.co2        1 0FX301  -1.0000
    19 O5         -31.7190     6.3610    47.5010 O.3          1 0FX301   0.0000
    20 C5         -30.8070     7.1320    46.7090 C.3          1 0FX301   0.0000
    21 C4         -30.2030     6.3120    45.5830 C.3          1 0FX301   0.0000
    22 O4         -29.2460     5.4150    46.1170 O.3          1 0FX301   0.0000
    23 C3         -31.1500     5.4470    44.8080 C.3          1 0FX301   0.0000
    24 O3         -31.6600     6.0960    43.6330 O.3          1 0FX301   0.0000
    25 C2         -30.2500     4.3240    44.2900 C.3          1 0FX301   0.0000
    26 C1         -29.2060     4.2020    45.4000 C.3          1 0FX301   0.0000
    27 N11        -29.4710     2.9980    46.1940 N.pl3        1 0FX301   0.0000
    28 C61        -30.2530     3.0790    47.2920 C.2          1 0FX301   0.0000
    29 C51        -30.5200     1.9450    48.0290 C.2          1 0FX301   0.0000
    30 C5A        -31.4170     1.8890    49.2490 C.3          1 0FX301   0.0000
    31 C21        -28.9190     1.8270    45.8170 C.2          1 0FX301   0.0000
    32 O21        -28.0970     1.7250    44.7530 O.2          1 0FX301   0.0000
    33 N31        -29.0940     0.7050    46.5230 N.pl3        1 0FX301   0.0000
    34 C41        -29.8880     0.7990    47.6110 C.2          1 0FX301   0.0000
    35 O41        -30.1690    -0.2710    48.3460 O.2          1 0FX301   0.0000
    36 H1G        -35.3024     9.9090    50.5501 H            1 0FX301   0.0000
    37 H2G        -36.8570     8.3548    51.2021 H            1 0FX301   0.0000
    38 H3         -34.6646     6.6624    51.2733 H            1 0FX301   0.0000
    39 H3G        -35.7424     6.3770    49.4380 H            1 0FX301   0.0000
    40 H5         -37.6557     5.2530    50.1685 H            1 0FX301   0.0000
    41 H4G        -38.0887     8.0150    49.0533 H            1 0FX301   0.0000
    42 H4A1       -38.7570     6.8772    47.3569 H            1 0FX301   0.0000
    43 H4A2       -37.2642     6.3098    47.0160 H            1 0FX301   0.0000
    44 H5G        -35.7222     8.0489    47.4184 H            1 0FX301   0.0000
    45 H6G1       -36.7759     9.8125    46.2218 H            1 0FX301   0.0000
    46 H6G2       -37.6845     8.4602    46.1108 H            1 0FX301   0.0000
    47 H6G3       -38.1136     9.6496    47.1442 H            1 0FX301   0.0000
    48 H13        -30.0703     7.4658    47.2971 H            1 0FX301   0.0000
    49 H14        -31.2977     7.9095    46.3156 H            1 0FX301   0.0000
    50 H15        -29.7419     6.9313    44.9475 H            1 0FX301   0.0000
    51 H16        -31.8865     5.0946    45.3854 H            1 0FX301   0.0000
    52 H17        -31.7014     7.0829    43.7887 H            1 0FX301   0.0000
    53 H18        -29.8253     4.5731    43.4196 H            1 0FX301   0.0000
    54 H19        -30.7618     3.4720    44.1794 H            1 0FX301   0.0000
    55 H20        -28.3036     4.1120    44.9785 H            1 0FX301   0.0000
    56 H21        -30.6374     3.9594    47.5698 H            1 0FX301   0.0000
    57 H5A1       -31.4449     0.9529    49.5996 H            1 0FX301   0.0000
    58 H5A2       -31.0575     2.4989    49.9553 H            1 0FX301   0.0000
    59 H5A3       -32.3405     2.1783    48.9973 H            1 0FX301   0.0000
    60 H25        -28.6604    -0.1568    46.2595 H            1 0FX301   0.0000
    61 H4A3       -38.1109     5.6826    48.2636 H            1 0FX301   0.0000
@<TRIPOS>BOND
     1    1    2      ar
     2    2    3      ar
     3    2    4       1
     4    2   15       1
     5    4    5       1
     6    5    6       1
     7    5   14       1
     8    6    7       1
     9    6    8       1
    10    8    9       1
    11    8   10       1
    12   10   11       1
    13   10   12       1
    14   12   13       1
    15   12   14       1
    16   15   16       1
    17   16   17      ar
    18   16   18      ar
    19   16   19       1
    20   19   20       1
    21   20   21       1
    22   21   22       1
    23   21   23       1
    24   22   26       1
    25   23   24       1
    26   23   25       1
    27   25   26       1
    28   26   27       1
    29   27   28       1
    30   27   31       1
    31   28   29       2
    32   29   30       1
    33   29   34       1
    34   31   32       2
    35   31   33       1
    36   33   34       1
    37   34   35       2
    38   33   60       1
    39    5   36       1
    40    6   37       1
    41    7   38       1
    42    8   39       1
    43    9   40       1
    44   10   41       1
    45   11   42       1
    46   11   43       1
    47   12   44       1
    48   13   45       1
    49   13   46       1
    50   13   47       1
    51   11   61       1
    52   20   48       1
    53   20   49       1
    54   21   50       1
    55   23   51       1
    56   24   52       1
    57   25   53       1
    58   25   54       1
    59   26   55       1
    60   28   56       1
    61   30   57       1
    62   30   58       1
    63   30   59       1
@<TRIPOS>SUBSTRUCTURE
     1 0FX301      1 GROUP             4 C     0FX     0 **** 0FX C 301
