@<TRIPOS>MOLECULE
4bqh_9VU_1_ligand
   39    42     1     0     0
SMALL
NO_CHARGES


@<TRIPOS>ATOM
     1 OAN         -8.2350    35.4930     7.4340 O.2          1 9VU1539   0.0000
     2 CAH         -9.2630    36.1490     7.6920 C.2          1 9VU1539   0.0000
     3 NAG        -10.4920    35.6270     7.7230 N.am         1 9VU1539   0.0000
     4 CAC        -11.3820    36.6190     7.9990 C.ar         1 9VU1539   0.0000
     5 CAB        -12.7130    36.5430     8.1000 C.ar         1 9VU1539   0.0000
     6 CAA        -13.5210    37.6610     8.3610 C.ar         1 9VU1539   0.0000
     7 CAF        -12.8860    38.9010     8.5020 C.ar         1 9VU1539   0.0000
     8 CAJ        -13.6690    40.0760     8.7650 C.3          1 9VU1539   0.0000
     9 CAE        -11.4780    38.9300     8.3850 C.ar         1 9VU1539   0.0000
    10 BRA        -10.6500    40.6190     8.6490 Br           1 9VU1539   0.0000
    11 CAD        -10.7390    37.8120     8.1400 C.ar         1 9VU1539   0.0000
    12 CAI         -9.3370    37.5470     7.9440 C.3          1 9VU1539   0.0000
    13 OAL         -8.8840    38.1870     6.7480 O.3          1 9VU1539   0.0000
    14 CAM         -8.3860    38.0760     9.0510 C.3          1 9VU1539   0.0000
    15 CAO         -8.5540    37.3600    10.4070 C.2          1 9VU1539   0.0000
    16 OAP         -9.2700    36.3480    10.4450 O.2          1 9VU1539   0.0000
    17 CAQ         -7.8350    37.8690    11.5290 C.ar         1 9VU1539   0.0000
    18 CAV         -7.2500    39.1370    11.5410 C.ar         1 9VU1539   0.0000
    19 CAU         -6.5670    39.5910    12.6070 C.ar         1 9VU1539   0.0000
    20 OAY         -5.9540    40.7990    12.7780 O.3          1 9VU1539   0.0000
    21 CAX         -5.0590    40.5750    13.9020 C.3          1 9VU1539   0.0000
    22 OAW         -5.7230    39.5520    14.6540 O.3          1 9VU1539   0.0000
    23 CAT         -6.4400    38.8610    13.7150 C.ar         1 9VU1539   0.0000
    24 CAS         -6.9890    37.6370    13.7860 C.ar         1 9VU1539   0.0000
    25 CAR         -7.7040    37.1210    12.7060 C.ar         1 9VU1539   0.0000
    26 HAG        -10.7206    34.6658     7.5688 H            1 9VU1539   0.0000
    27 HAB        -13.1517    35.6518     7.9847 H            1 9VU1539   0.0000
    28 HAA        -14.5139    37.5749     8.4432 H            1 9VU1539   0.0000
    29 HAJ1       -13.0651    40.8698     8.8368 H            1 9VU1539   0.0000
    30 HAJ2       -14.3185    40.2178     8.0180 H            1 9VU1539   0.0000
    31 HAJ3       -14.1685    39.9585     9.6233 H            1 9VU1539   0.0000
    32 HAL         -8.0813    38.7470     6.9531 H            1 9VU1539   0.0000
    33 HAM1        -8.5674    39.0504     9.1839 H            1 9VU1539   0.0000
    34 HAM2        -7.4428    37.9515     8.7429 H            1 9VU1539   0.0000
    35 HAV         -7.3413    39.7229    10.7358 H            1 9VU1539   0.0000
    36 HAX1        -4.9521    41.4072    14.4461 H            1 9VU1539   0.0000
    37 HAX2        -4.1617    40.2640    13.5888 H            1 9VU1539   0.0000
    38 HAS         -6.8842    37.0928    14.6184 H            1 9VU1539   0.0000
    39 HAR         -8.1238    36.2158    12.7717 H            1 9VU1539   0.0000
@<TRIPOS>BOND
     1    1    2       2
     2    2    3      am
     3    2   12       1
     4    3    4       1
     5    4    5      ar
     6    4   11      ar
     7    5    6      ar
     8    6    7      ar
     9    7    8       1
    10    7    9      ar
    11    9   10       1
    12    9   11      ar
    13   11   12       1
    14   12   13       1
    15   12   14       1
    16   14   15       1
    17   15   16       2
    18   15   17       1
    19   17   18      ar
    20   17   25      ar
    21   18   19      ar
    22   19   20       1
    23   19   23      ar
    24   20   21       1
    25   21   22       1
    26   22   23       1
    27   23   24      ar
    28   24   25      ar
    29    3   26       1
    30    5   27       1
    31    6   28       1
    32    8   29       1
    33    8   30       1
    34    8   31       1
    35   13   32       1
    36   14   33       1
    37   14   34       1
    38   18   35       1
    39   21   36       1
    40   21   37       1
    41   24   38       1
    42   25   39       1
@<TRIPOS>SUBSTRUCTURE
     1 9VU1539     1 GROUP             4 A     9VU     0 **** 9VU A1539
