@<TRIPOS>MOLECULE
5bn4_ANP_1_ligand
   44    46     1     0     0
SMALL
NO_CHARGES


@<TRIPOS>ATOM
     1 PG         -18.4020    20.3940   -11.9000 P.3          1 ANP601   0.0000
     2 O1G        -18.5370    21.9350   -12.1160 O.co2        1 ANP601   0.0000
     3 O2G        -19.4500    19.9200   -10.7990 O.co2        1 ANP601  -1.0000
     4 O3G        -16.9970    20.0340   -11.3980 O.co2        1 ANP601  -1.0000
     5 PB         -17.6080    19.3740   -14.4000 P.3          1 ANP601   0.0000
     6 O1B        -17.7270    17.9220   -14.9480 O.co2        1 ANP601   0.0000
     7 O2B        -16.1930    19.5330   -13.7860 O.co2        1 ANP601  -1.0000
     8 N3B        -18.8340    19.6130   -13.2790 N.3          1 ANP601   0.0000
     9 PA         -18.8370    21.5310   -15.6650 P.3          1 ANP601   0.0000
    10 O1A        -20.2190    20.9040   -15.3820 O.co2        1 ANP601   0.0000
    11 O2A        -18.5560    22.6260   -14.5760 O.co2        1 ANP601  -1.0000
    12 O3A        -17.7690    20.3270   -15.5960 O.3          1 ANP601   0.0000
    13 O5'        -18.7610    22.1220   -17.1090 O.3          1 ANP601   0.0000
    14 C5'        -17.4770    22.2630   -17.7270 C.3          1 ANP601   0.0000
    15 C4'        -17.6290    22.9810   -19.0490 C.3          1 ANP601   0.0000
    16 O4'        -18.4130    22.2520   -19.9220 O.3          1 ANP601   0.0000
    17 C3'        -18.2630    24.3500   -18.8380 C.3          1 ANP601   0.0000
    18 O3'        -17.3790    25.3510   -19.0180 O.3          1 ANP601   0.0000
    19 C2'        -19.3440    24.4410   -19.8450 C.3          1 ANP601   0.0000
    20 O2'        -19.2500    25.5490   -20.6800 O.3          1 ANP601   0.0000
    21 C1'        -19.2250    23.1590   -20.6320 C.3          1 ANP601   0.0000
    22 N9         -20.5130    22.5360   -20.9400 N.pl3        1 ANP601   0.0000
    23 C8         -21.0560    21.4810   -20.3100 C.2          1 ANP601   0.0000
    24 N7         -22.2210    21.1920   -20.8520 N.2          1 ANP601   0.0000
    25 C5         -22.4730    22.0430   -21.8430 C.ar         1 ANP601   0.0000
    26 C6         -23.5210    22.2080   -22.7420 C.ar         1 ANP601   0.0000
    27 N6         -24.6470    21.3230   -22.6880 N.pl3        1 ANP601   0.0000
    28 N1         -23.4750    23.1900   -23.6560 N.ar         1 ANP601   0.0000
    29 C2         -22.4210    24.0390   -23.7280 C.ar         1 ANP601   0.0000
    30 N3         -21.3810    23.9070   -22.8680 N.ar         1 ANP601   0.0000
    31 C4         -21.3810    22.9240   -21.9230 C.ar         1 ANP601   0.0000
    32 H3B        -19.1945    18.7160   -13.0232 H            1 ANP601   0.0000
    33 H5'1       -17.0811    21.3580   -17.8829 H            1 ANP601   0.0000
    34 H5'2       -16.8752    22.7914   -17.1281 H            1 ANP601   0.0000
    35 H4'        -16.7234    23.1042   -19.4550 H            1 ANP601   0.0000
    36 H3'        -18.6522    24.4041   -17.9185 H            1 ANP601   0.0000
    37 H6         -17.0195    25.3146   -19.9504 H            1 ANP601   0.0000
    38 H2'        -20.2275    24.4574   -19.3769 H            1 ANP601   0.0000
    39 H8         -19.6445    25.3285   -21.5721 H            1 ANP601   0.0000
    40 H1'        -18.7693    23.3692   -21.4970 H            1 ANP601   0.0000
    41 H10        -20.6389    20.9896   -19.5454 H            1 ANP601   0.0000
    42 H11        -25.4036    21.4367   -23.3319 H            1 ANP601   0.0000
    43 H12        -24.6760    20.5918   -22.0065 H            1 ANP601   0.0000
    44 H13        -22.4103    24.7641   -24.4166 H            1 ANP601   0.0000
@<TRIPOS>BOND
     1    1    2      ar
     2    1    3      ar
     3    1    4      ar
     4    1    8       1
     5    5    6      ar
     6    5    7      ar
     7    5    8       1
     8    5   12       1
     9    9   10      ar
    10    9   11      ar
    11    9   12       1
    12    9   13       1
    13   13   14       1
    14   14   15       1
    15   15   16       1
    16   15   17       1
    17   16   21       1
    18   17   18       1
    19   17   19       1
    20   19   20       1
    21   19   21       1
    22   21   22       1
    23   22   23       1
    24   22   31       1
    25   23   24       2
    26   24   25       1
    27   25   26      ar
    28   25   31      ar
    29   26   27       1
    30   26   28      ar
    31   28   29      ar
    32   29   30      ar
    33   30   31      ar
    34   29   44       1
    35   27   43       1
    36   27   42       1
    37    8   32       1
    38   23   41       1
    39   14   33       1
    40   14   34       1
    41   15   35       1
    42   17   36       1
    43   18   37       1
    44   19   38       1
    45   20   39       1
    46   21   40       1
@<TRIPOS>SUBSTRUCTURE
     1 ANP601      1 GROUP             4 A     ANP     0 **** ANP A 601
