@<TRIPOS>MOLECULE
4xzj_NAD_1_ligand
   70    74     1     0     0
SMALL
NO_CHARGES


@<TRIPOS>ATOM
     1 PA           7.2400    36.9940     5.7000 P.3          1 NAD700   0.0000
     2 O1A          6.5560    36.8570     7.0470 O.co2        1 NAD700   0.0000
     3 O2A          8.7540    37.0940     5.6460 O.co2        1 NAD700  -1.0000
     4 O5B          6.7510    35.7120     4.8520 O.3          1 NAD700   0.0000
     5 C5B          7.3960    35.4610     3.5950 C.3          1 NAD700   0.0000
     6 C4B          6.5930    34.3120     2.9230 C.3          1 NAD700   0.0000
     7 O4B          6.5710    33.1530     3.7740 O.3          1 NAD700   0.0000
     8 C3B          5.1160    34.6970     2.6830 C.3          1 NAD700   0.0000
     9 O3B          4.5530    34.0160     1.5800 O.3          1 NAD700   0.0000
    10 C2B          4.4260    34.2040     3.9690 C.3          1 NAD700   0.0000
    11 O2B          2.9990    34.0490     3.8930 O.3          1 NAD700   0.0000
    12 C1B          5.2320    32.9060     4.2170 C.3          1 NAD700   0.0000
    13 N9A          5.2090    32.5520     5.6500 N.pl3        1 NAD700   0.0000
    14 C8A          5.3890    33.3760     6.7180 C.2          1 NAD700   0.0000
    15 N7A          5.3030    32.7150     7.8550 N.2          1 NAD700   0.0000
    16 C5A          5.0470    31.4270     7.5200 C.ar         1 NAD700   0.0000
    17 C6A          4.8460    30.2340     8.2480 C.ar         1 NAD700   0.0000
    18 N6A          4.8510    30.1980     9.5920 N.pl3        1 NAD700   0.0000
    19 N1A          4.6770    29.1030     7.5780 N.ar         1 NAD700   0.0000
    20 C2A          4.6250    29.1110     6.2570 C.ar         1 NAD700   0.0000
    21 N3A          4.8050    30.1600     5.4560 N.ar         1 NAD700   0.0000
    22 C4A          5.0160    31.2970     6.1420 C.ar         1 NAD700   0.0000
    23 O3           6.7160    38.3090     4.9420 O.3          1 NAD700   0.0000
    24 PN           5.2060    38.7750     4.7080 P.3          1 NAD700   0.0000
    25 O1N          4.6510    39.4550     5.9300 O.co2        1 NAD700   0.0000
    26 O2N          4.3270    37.6770     4.1800 O.co2        1 NAD700  -1.0000
    27 O5D          5.3710    39.8040     3.5100 O.3          1 NAD700   0.0000
    28 C5D          6.1160    40.9710     3.7860 C.3          1 NAD700   0.0000
    29 C4D          5.8750    41.8340     2.5550 C.3          1 NAD700   0.0000
    30 O4D          4.4780    42.2030     2.5400 O.3          1 NAD700   0.0000
    31 C3D          6.6350    43.1490     2.5590 C.3          1 NAD700   0.0000
    32 O3D          6.6700    43.7120     1.2220 O.3          1 NAD700   0.0000
    33 C2D          5.7510    44.0020     3.4780 C.3          1 NAD700   0.0000
    34 O2D          5.8710    45.3990     3.2080 O.3          1 NAD700   0.0000
    35 C1D          4.3440    43.5050     3.0770 C.3          1 NAD700   0.0000
    36 N1N          3.3510    43.4930     4.1870 N.ar         1 NAD700   1.0000
    37 C2N          2.7610    42.3550     4.5820 C.ar         1 NAD700   0.0000
    38 C3N          1.7890    42.3470     5.5970 C.ar         1 NAD700   0.0000
    39 C7N          1.1040    41.0830     5.9940 C.2          1 NAD700   0.0000
    40 O7N         -0.0880    41.1500     6.3160 O.2          1 NAD700   0.0000
    41 N7N          1.7740    39.9180     5.9240 N.am         1 NAD700   0.0000
    42 C4N          1.4180    43.5740     6.1630 C.ar         1 NAD700   0.0000
    43 C5N          2.0460    44.7480     5.7120 C.ar         1 NAD700   0.0000
    44 C6N          2.9990    44.6700     4.7130 C.ar         1 NAD700   0.0000
    45 H5B1         8.3452    35.1822     3.7411 H            1 NAD700   0.0000
    46 H5B2         7.3737    36.2811     3.0232 H            1 NAD700   0.0000
    47 H4B          7.0201    34.0749     2.0504 H            1 NAD700   0.0000
    48 H3B          5.0166    35.6868     2.5808 H            1 NAD700   0.0000
    49 H5           3.8475    34.5871     1.1604 H            1 NAD700   0.0000
    50 H2B          4.6338    34.8488     4.7046 H            1 NAD700   0.0000
    51 H7           2.5627    34.6431     4.5688 H            1 NAD700   0.0000
    52 H1B          4.8357    32.1596     3.6823 H            1 NAD700   0.0000
    53 H8A          5.5642    34.3581     6.6489 H            1 NAD700   0.0000
    54 H6A1         4.7046    29.3317    10.0695 H            1 NAD700   0.0000
    55 H6A2         5.0011    31.0376    10.1141 H            1 NAD700   0.0000
    56 H2A          4.4299    28.2370     5.8120 H            1 NAD700   0.0000
    57 H5D1         7.0877    40.7599     3.8917 H            1 NAD700   0.0000
    58 H5D2         5.7813    41.4234     4.6126 H            1 NAD700   0.0000
    59 H4D          6.0978    41.3162     1.7290 H            1 NAD700   0.0000
    60 H3D          7.5553    43.0392     2.9345 H            1 NAD700   0.0000
    61 H17          7.5074    44.2464     1.1072 H            1 NAD700   0.0000
    62 H2D          5.9397    43.8055     4.4402 H            1 NAD700   0.0000
    63 H19          5.7141    45.9158     4.0496 H            1 NAD700   0.0000
    64 H1D          3.9966    44.1043     2.3558 H            1 NAD700   0.0000
    65 H2N          3.0184    41.4933     4.1446 H            1 NAD700   0.0000
    66 H7N1         1.3232    39.0653     6.1880 H            1 NAD700   0.0000
    67 H7N2         2.7227    39.9050     5.6080 H            1 NAD700   0.0000
    68 H4N          0.7180    43.6138     6.8760 H            1 NAD700   0.0000
    69 H5N          1.8054    45.6330     6.1106 H            1 NAD700   0.0000
    70 H6N          3.4315    45.5075     4.3790 H            1 NAD700   0.0000
@<TRIPOS>BOND
     1    1    2      ar
     2    1    3      ar
     3    1    4       1
     4    1   23       1
     5    4    5       1
     6    5    6       1
     7    6    7       1
     8    6    8       1
     9    7   12       1
    10    8    9       1
    11    8   10       1
    12   10   11       1
    13   10   12       1
    14   12   13       1
    15   13   14       1
    16   13   22       1
    17   14   15       2
    18   15   16       1
    19   16   17      ar
    20   16   22      ar
    21   17   18       1
    22   17   19      ar
    23   19   20      ar
    24   20   21      ar
    25   21   22      ar
    26   23   24       1
    27   24   25      ar
    28   24   26      ar
    29   24   27       1
    30   27   28       1
    31   28   29       1
    32   29   30       1
    33   29   31       1
    34   30   35       1
    35   31   32       1
    36   31   33       1
    37   33   34       1
    38   33   35       1
    39   35   36       1
    40   36   37      ar
    41   36   44      ar
    42   37   38      ar
    43   38   39       1
    44   38   42      ar
    45   39   40       2
    46   39   41      am
    47   42   43      ar
    48   43   44      ar
    49   44   70       1
    50    5   45       1
    51    5   46       1
    52    6   47       1
    53    8   48       1
    54    9   49       1
    55   10   50       1
    56   11   51       1
    57   12   52       1
    58   14   53       1
    59   18   54       1
    60   18   55       1
    61   20   56       1
    62   43   69       1
    63   28   57       1
    64   28   58       1
    65   29   59       1
    66   31   60       1
    67   32   61       1
    68   33   62       1
    69   34   63       1
    70   35   64       1
    71   37   65       1
    72   41   66       1
    73   41   67       1
    74   42   68       1
@<TRIPOS>SUBSTRUCTURE
     1 NAD700      1 GROUP             4 A     NAD     0 **** NAD A 700
