@<TRIPOS>MOLECULE
5jy1_NAD_3_ligand
   70    74     1     0     0
SMALL
NO_CHARGES


@<TRIPOS>ATOM
     1 PA           9.7990    26.0310    49.0770 P.3          1 NAD301   0.0000
     2 O1A         10.1810    24.6850    49.6250 O.co2        1 NAD301   0.0000
     3 O2A         10.6760    27.1390    49.6450 O.co2        1 NAD301  -1.0000
     4 O5B          8.1850    26.3590    49.3620 O.3          1 NAD301   0.0000
     5 C5B          7.2520    25.4100    48.9520 C.3          1 NAD301   0.0000
     6 C4B          5.8230    25.9130    49.4270 C.3          1 NAD301   0.0000
     7 O4B          4.9340    25.0560    49.0510 O.3          1 NAD301   0.0000
     8 C3B          5.7940    25.9310    50.9990 C.3          1 NAD301   0.0000
     9 O3B          5.2090    27.1100    51.5070 O.3          1 NAD301   0.0000
    10 C2B          4.9790    24.7030    51.3190 C.3          1 NAD301   0.0000
    11 O2B          4.3740    24.8190    52.6970 O.3          1 NAD301   0.0000
    12 C1B          4.0680    24.7040    50.3620 C.3          1 NAD301   0.0000
    13 N9A          3.4300    23.4050    50.1960 N.pl3        1 NAD301   0.0000
    14 C8A          4.0040    22.2110    50.3860 C.2          1 NAD301   0.0000
    15 N7A          3.1070    21.2750    50.1410 N.2          1 NAD301   0.0000
    16 C5A          1.9650    21.8800    49.7970 C.ar         1 NAD301   0.0000
    17 C6A          0.7120    21.3600    49.4470 C.ar         1 NAD301   0.0000
    18 N6A          0.1160    20.0380    49.3020 N.pl3        1 NAD301   0.0000
    19 N1A         -0.2820    22.1750    49.1460 N.ar         1 NAD301   0.0000
    20 C2A         -0.0690    23.5320    49.1770 C.ar         1 NAD301   0.0000
    21 N3A          1.1370    24.0390    49.5210 N.ar         1 NAD301   0.0000
    22 C4A          2.1660    23.1930    49.8290 C.ar         1 NAD301   0.0000
    23 O3           9.9880    25.9370    47.4420 O.3          1 NAD301   0.0000
    24 PN          10.7670    26.9720    46.4570 P.3          1 NAD301   0.0000
    25 O1N         12.2690    26.7740    46.5710 O.co2        1 NAD301   0.0000
    26 O2N         10.3770    28.4350    46.7290 O.co2        1 NAD301  -1.0000
    27 O5D         10.3150    26.4880    44.9400 O.3          1 NAD301   0.0000
    28 C5D          9.0750    26.9610    44.4110 C.3          1 NAD301   0.0000
    29 C4D          8.8740    26.4690    42.9420 C.3          1 NAD301   0.0000
    30 O4D          9.9550    26.7590    42.2210 O.3          1 NAD301   0.0000
    31 C3D          8.7650    24.9440    42.9780 C.3          1 NAD301   0.0000
    32 O3D          7.8990    24.4950    42.0480 O.3          1 NAD301   0.0000
    33 C2D         10.2200    24.5040    42.6750 C.3          1 NAD301   0.0000
    34 O2D         10.1990    23.0920    42.2090 O.3          1 NAD301   0.0000
    35 C1D         10.6240    25.3730    41.7650 C.3          1 NAD301   0.0000
    36 N1N         12.0750    25.5060    41.7300 N.ar         1 NAD301   1.0000
    37 C2N         12.7590    26.2090    42.6730 C.ar         1 NAD301   0.0000
    38 C3N         14.1530    26.2990    42.6100 C.ar         1 NAD301   0.0000
    39 C7N         14.9570    27.0550    43.6360 C.2          1 NAD301   0.0000
    40 O7N         16.1440    27.2720    43.4590 O.2          1 NAD301   0.0000
    41 N7N         14.3570    27.4800    44.8370 N.am         1 NAD301   0.0000
    42 C4N         14.8320    25.6720    41.5920 C.ar         1 NAD301   0.0000
    43 C5N         14.1540    24.9850    40.6560 C.ar         1 NAD301   0.0000
    44 C6N         12.7580    24.9030    40.7190 C.ar         1 NAD301   0.0000
    45 H5B1         7.4588    24.5249    49.3690 H            1 NAD301   0.0000
    46 H5B2         7.2695    25.3215    47.9561 H            1 NAD301   0.0000
    47 H4B          5.6230    26.8200    49.0564 H            1 NAD301   0.0000
    48 H3B          6.7215    25.8281    51.3585 H            1 NAD301   0.0000
    49 H5           4.2676    27.1836    51.1779 H            1 NAD301   0.0000
    50 H2B          5.5475    23.8826    51.2569 H            1 NAD301   0.0000
    51 H7           3.4765    25.2552    52.6314 H            1 NAD301   0.0000
    52 H1B          3.3827    25.4125    50.5306 H            1 NAD301   0.0000
    53 H8A          4.9512    22.0549    50.6659 H            1 NAD301   0.0000
    54 H6A1        -0.8417    19.9486    49.0283 H            1 NAD301   0.0000
    55 H6A2         0.6647    19.2203    49.4762 H            1 NAD301   0.0000
    56 H2A         -0.8161    24.1537    48.9419 H            1 NAD301   0.0000
    57 H5D1         9.0729    27.9609    44.4249 H            1 NAD301   0.0000
    58 H5D2         8.3252    26.6182    44.9769 H            1 NAD301   0.0000
    59 H4D          8.0551    26.8763    42.5377 H            1 NAD301   0.0000
    60 H3D          8.4898    24.6355    43.8885 H            1 NAD301   0.0000
    61 H17          6.9938    24.8836    42.2202 H            1 NAD301   0.0000
    62 H2D         10.7810    24.5847    43.4988 H            1 NAD301   0.0000
    63 H19          9.8086    22.5110    42.9232 H            1 NAD301   0.0000
    64 H1D         10.2825    25.1082    40.8632 H            1 NAD301   0.0000
    65 H2N         12.2632    26.6628    43.4135 H            1 NAD301   0.0000
    66 H7N1        14.8950    27.9814    45.5146 H            1 NAD301   0.0000
    67 H7N2        13.3929    27.2804    45.0122 H            1 NAD301   0.0000
    68 H4N         15.8295    25.7269    41.5478 H            1 NAD301   0.0000
    69 H5N         14.6477    24.5319    39.9137 H            1 NAD301   0.0000
    70 H6N         12.2586    24.3973    40.0155 H            1 NAD301   0.0000
@<TRIPOS>BOND
     1    1    2      ar
     2    1    3      ar
     3    1    4       1
     4    1   23       1
     5    4    5       1
     6    5    6       1
     7    6    7       1
     8    6    8       1
     9    7   12       1
    10    8    9       1
    11    8   10       1
    12   10   11       1
    13   10   12       1
    14   12   13       1
    15   13   14       1
    16   13   22       1
    17   14   15       2
    18   15   16       1
    19   16   17      ar
    20   16   22      ar
    21   17   18       1
    22   17   19      ar
    23   19   20      ar
    24   20   21      ar
    25   21   22      ar
    26   23   24       1
    27   24   25      ar
    28   24   26      ar
    29   24   27       1
    30   27   28       1
    31   28   29       1
    32   29   30       1
    33   29   31       1
    34   30   35       1
    35   31   32       1
    36   31   33       1
    37   33   34       1
    38   33   35       1
    39   35   36       1
    40   36   37      ar
    41   36   44      ar
    42   37   38      ar
    43   38   39       1
    44   38   42      ar
    45   39   40       2
    46   39   41      am
    47   42   43      ar
    48   43   44      ar
    49   44   70       1
    50    5   45       1
    51    5   46       1
    52    6   47       1
    53    8   48       1
    54    9   49       1
    55   10   50       1
    56   11   51       1
    57   12   52       1
    58   14   53       1
    59   18   54       1
    60   18   55       1
    61   20   56       1
    62   43   69       1
    63   28   57       1
    64   28   58       1
    65   29   59       1
    66   31   60       1
    67   32   61       1
    68   33   62       1
    69   34   63       1
    70   35   64       1
    71   37   65       1
    72   41   66       1
    73   41   67       1
    74   42   68       1
@<TRIPOS>SUBSTRUCTURE
     1 NAD301      1 GROUP             4 C     NAD     0 **** NAD C 301
