@<TRIPOS>MOLECULE
2clp_NDP_6_ligand
   73    77     1     0     0
SMALL
NO_CHARGES


@<TRIPOS>ATOM
     1 PA          -6.1480    44.2350     5.8440 P.3          1 NDP1361   0.0000
     2 O1A         -7.5990    44.5620     5.9990 O.co2        1 NDP1361   0.0000
     3 O2A         -5.3640    44.6360     7.0480 O.co2        1 NDP1361  -1.0000
     4 O5B         -5.5620    44.9320     4.5160 O.3          1 NDP1361   0.0000
     5 C5B         -4.1710    44.9620     4.2770 C.3          1 NDP1361   0.0000
     6 C4B         -3.9180    46.1730     3.4150 C.3          1 NDP1361   0.0000
     7 O4B         -4.2280    47.3230     4.1840 O.3          1 NDP1361   0.0000
     8 C3B         -2.4910    46.3130     2.9110 C.3          1 NDP1361   0.0000
     9 O3B         -2.2630    45.6810     1.6570 O.3          1 NDP1361   0.0000
    10 C2B         -2.3870    47.8270     2.8680 C.3          1 NDP1361   0.0000
    11 O2B         -3.0360    48.3640     1.7540 O.3          1 NDP1361   0.0000
    12 C1B         -3.2300    48.3120     4.0280 C.3          1 NDP1361   0.0000
    13 N9A         -2.4030    48.4850     5.2410 N.pl3        1 NDP1361   0.0000
    14 C8A         -1.9520    47.5020     6.0940 C.2          1 NDP1361   0.0000
    15 N7A         -1.2280    48.0960     7.0780 N.2          1 NDP1361   0.0000
    16 C5A         -1.2130    49.4300     6.8710 C.ar         1 NDP1361   0.0000
    17 C6A         -0.6280    50.4760     7.5690 C.ar         1 NDP1361   0.0000
    18 N6A          0.0800    50.2400     8.6680 N.pl3        1 NDP1361   0.0000
    19 N1A         -0.7980    51.7700     7.1040 N.ar         1 NDP1361   0.0000
    20 C2A         -1.5410    52.0190     5.9520 C.ar         1 NDP1361   0.0000
    21 N3A         -2.1200    50.9730     5.2610 N.ar         1 NDP1361   0.0000
    22 C4A         -1.9550    49.6980     5.7180 C.ar         1 NDP1361   0.0000
    23 O3          -5.8850    42.6570     5.6050 O.3          1 NDP1361   0.0000
    24 PN          -6.0850    41.9060     4.2020 P.3          1 NDP1361   0.0000
    25 O1N         -4.7830    41.8240     3.4950 O.co2        1 NDP1361   0.0000
    26 O2N         -7.3130    42.3740     3.5360 O.co2        1 NDP1361  -1.0000
    27 O5D         -6.4160    40.4560     4.7560 O.3          1 NDP1361   0.0000
    28 C5D         -5.3860    39.8570     5.4860 C.3          1 NDP1361   0.0000
    29 C4D         -5.0390    38.4980     4.8910 C.3          1 NDP1361   0.0000
    30 O4D         -6.2260    37.7330     4.9100 O.3          1 NDP1361   0.0000
    31 C3D         -4.4880    38.4080     3.4630 C.3          1 NDP1361   0.0000
    32 O3D         -3.1090    38.6880     3.3030 O.3          1 NDP1361   0.0000
    33 C2D         -4.8220    36.9550     3.2020 C.3          1 NDP1361   0.0000
    34 O2D         -3.7900    36.1260     3.7020 O.3          1 NDP1361   0.0000
    35 C1D         -6.1120    36.6980     3.9860 C.3          1 NDP1361   0.0000
    36 N1N         -7.3290    36.8180     3.1980 N.ar         1 NDP1361   1.0000
    37 C2N         -8.1810    35.7580     3.1100 C.ar         1 NDP1361   0.0000
    38 C3N         -9.3870    35.9140     2.4440 C.ar         1 NDP1361   0.0000
    39 C7N        -10.2870    34.7550     2.2450 C.2          1 NDP1361   0.0000
    40 O7N        -10.9820    34.6950     1.0310 O.2          1 NDP1361   0.0000
    41 N7N        -10.4280    33.8700     3.2260 N.am         1 NDP1361   0.0000
    42 C4N         -9.6180    37.0440     1.4850 C.ar         1 NDP1361   0.0000
    43 C5N         -8.6110    38.1290     1.6650 C.ar         1 NDP1361   0.0000
    44 C6N         -7.5150    37.9730     2.4960 C.ar         1 NDP1361   0.0000
    45 P2B         -2.3110    48.9920     0.4790 P.3          1 NDP1361   0.0000
    46 O1X         -1.1480    49.8550     0.8930 O.co2        1 NDP1361   0.0000
    47 O2X         -1.8720    47.8850    -0.4680 O.co2        1 NDP1361  -1.0000
    48 O3X         -3.3620    49.8740    -0.1380 O.co2        1 NDP1361  -1.0000
    49 H5B1        -3.8832    44.1312     3.8006 H            1 NDP1361   0.0000
    50 H5B2        -3.6726    45.0408     5.1404 H            1 NDP1361   0.0000
    51 H4B         -4.5335    46.1393     2.6276 H            1 NDP1361   0.0000
    52 H3B         -1.8553    45.9502     3.5923 H            1 NDP1361   0.0000
    53 H5          -1.9631    46.3628     0.9897 H            1 NDP1361   0.0000
    54 H2B         -1.4396    48.1397     2.9367 H            1 NDP1361   0.0000
    55 H1B         -3.6580    49.1835     3.7885 H            1 NDP1361   0.0000
    56 H8A         -2.1271    46.5215     6.0045 H            1 NDP1361   0.0000
    57 H6A1         0.4987    50.9996     9.1658 H            1 NDP1361   0.0000
    58 H6A2         0.1942    49.3028     8.9975 H            1 NDP1361   0.0000
    59 H2A         -1.6552    52.9571     5.6249 H            1 NDP1361   0.0000
    60 H5D1        -5.6801    39.7368     6.4342 H            1 NDP1361   0.0000
    61 H5D2        -4.5776    40.4450     5.4597 H            1 NDP1361   0.0000
    62 H4D         -4.3810    38.0564     5.5009 H            1 NDP1361   0.0000
    63 H3D         -5.0250    38.9932     2.8554 H            1 NDP1361   0.0000
    64 H16         -2.9851    39.6652     3.1305 H            1 NDP1361   0.0000
    65 H2D         -4.9634    36.7942     2.2252 H            1 NDP1361   0.0000
    66 H18         -4.1749    35.2464     3.9814 H            1 NDP1361   0.0000
    67 H1D         -6.0751    35.8122     4.4486 H            1 NDP1361   0.0000
    68 H2N         -7.9394    34.8788     3.5206 H            1 NDP1361   0.0000
    69 H7N1       -11.0323    33.0824     3.1058 H            1 NDP1361   0.0000
    70 H7N2        -9.9298    33.9915     4.0845 H            1 NDP1361   0.0000
    71 H4N        -10.3550    37.0669     0.8095 H            1 NDP1361   0.0000
    72 H5N         -8.7305    38.9913     1.1728 H            1 NDP1361   0.0000
    73 H6N         -6.8514    38.7160     2.5829 H            1 NDP1361   0.0000
@<TRIPOS>BOND
     1    1    2      ar
     2    1    3      ar
     3    1    4       1
     4    1   23       1
     5    4    5       1
     6    5    6       1
     7    6    7       1
     8    6    8       1
     9    7   12       1
    10    8    9       1
    11    8   10       1
    12   10   11       1
    13   10   12       1
    14   11   45       1
    15   12   13       1
    16   13   14       1
    17   13   22       1
    18   14   15       2
    19   15   16       1
    20   16   17      ar
    21   16   22      ar
    22   17   18       1
    23   17   19      ar
    24   19   20      ar
    25   20   21      ar
    26   21   22      ar
    27   23   24       1
    28   24   25      ar
    29   24   26      ar
    30   24   27       1
    31   27   28       1
    32   28   29       1
    33   29   30       1
    34   29   31       1
    35   30   35       1
    36   31   32       1
    37   31   33       1
    38   33   34       1
    39   33   35       1
    40   35   36       1
    41   36   37      ar
    42   36   44      ar
    43   37   38      ar
    44   38   39       1
    45   38   42      ar
    46   39   40       2
    47   39   41      am
    48   42   43      ar
    49   43   44      ar
    50   45   46      ar
    51   45   47      ar
    52   45   48      ar
    53   43   72       1
    54    5   49       1
    55    5   50       1
    56    6   51       1
    57    8   52       1
    58    9   53       1
    59   10   54       1
    60   12   55       1
    61   14   56       1
    62   18   57       1
    63   18   58       1
    64   20   59       1
    65   44   73       1
    66   28   60       1
    67   28   61       1
    68   29   62       1
    69   31   63       1
    70   32   64       1
    71   33   65       1
    72   34   66       1
    73   35   67       1
    74   37   68       1
    75   41   69       1
    76   41   70       1
    77   42   71       1
@<TRIPOS>SUBSTRUCTURE
     1 NDP1361     1 GROUP             4 F     NDP     0 **** NDP F1361
