@<TRIPOS>MOLECULE
3bcd_ACX_1_ligand
  126   132     1     0     0
SMALL
NO_CHARGES


@<TRIPOS>ATOM
     1 C1A         41.8440    26.9750     1.1870 C.3          1 ACX901   0.0000
     2 C2A         42.6080    25.7660     0.6270 C.3          1 ACX901   0.0000
     3 C3A         43.7530    25.3740     1.5600 C.3          1 ACX901   0.0000
     4 C4A         44.6670    26.5650     1.8380 C.3          1 ACX901   0.0000
     5 C5A         43.8620    27.8400     2.2200 C.3          1 ACX901   0.0000
     6 C6A         44.7070    29.1100     2.1980 C.3          1 ACX901   0.0000
     7 O1A         41.3170    26.6680     2.4770 O.3          1 ACX901   0.0000
     8 O2A         41.7570    24.6230     0.4540 O.3          1 ACX901   0.0000
     9 O3A         44.4790    24.2450     1.0340 O.3          1 ACX901   0.0000
    10 O5A         42.7310    28.0940     1.3630 O.3          1 ACX901   0.0000
    11 O6A         43.8790    30.2540     1.9470 O.3          1 ACX901   0.0000
    12 C1B         38.0390    26.3150     4.8140 C.3          1 ACX901   0.0000
    13 C2B         38.2900    25.0870     3.9170 C.3          1 ACX901   0.0000
    14 C3B         39.7570    25.1350     3.4620 C.3          1 ACX901   0.0000
    15 C4B         39.9350    26.3940     2.5940 C.3          1 ACX901   0.0000
    16 C5B         39.3340    27.6500     3.2230 C.3          1 ACX901   0.0000
    17 C6B         39.2100    28.7500     2.1650 C.3          1 ACX901   0.0000
    18 O1B         39.0410    26.4910     5.8700 O.3          1 ACX901   0.0000
    19 O2B         37.9580    23.8400     4.5420 O.3          1 ACX901   0.0000
    20 O3B         40.1550    23.9250     2.7840 O.3          1 ACX901   0.0000
    21 O5B         38.0580    27.4030     3.8550 O.3          1 ACX901   0.0000
    22 O6B         38.7430    29.9560     2.7730 O.3          1 ACX901   0.0000
    23 C1C         39.9710    26.2440     9.9810 C.3          1 ACX901   0.0000
    24 C2C         39.2670    25.0040     9.4170 C.3          1 ACX901   0.0000
    25 C3C         39.1040    25.0250     7.8910 C.3          1 ACX901   0.0000
    26 C4C         38.7260    26.4010     7.2920 C.3          1 ACX901   0.0000
    27 C5C         39.4880    27.5380     8.0050 C.3          1 ACX901   0.0000
    28 C6C         39.0260    28.9360     7.5710 C.3          1 ACX901   0.0000
    29 O1C         41.3840    26.1610     9.7110 O.3          1 ACX901   0.0000
    30 O2C         39.9960    23.8190     9.8240 O.3          1 ACX901   0.0000
    31 O3C         38.1070    24.0370     7.6050 O.3          1 ACX901   0.0000
    32 O5C         39.3810    27.4290     9.4330 O.3          1 ACX901   0.0000
    33 O6C         37.9300    29.4020     8.3730 O.3          1 ACX901   0.0000
    34 C1D         45.1190    26.7490    11.2790 C.3          1 ACX901   0.0000
    35 C2D         44.3920    25.5350    11.8770 C.3          1 ACX901   0.0000
    36 C3D         43.1640    25.2070    11.0230 C.3          1 ACX901   0.0000
    37 C4D         42.2940    26.4450    10.7840 C.3          1 ACX901   0.0000
    38 C5D         43.0990    27.6870    10.3740 C.3          1 ACX901   0.0000
    39 C6D         42.2530    28.9670    10.2920 C.3          1 ACX901   0.0000
    40 O1D         45.6500    26.4500     9.9660 O.3          1 ACX901   0.0000
    41 O2D         45.3150    24.4270    12.0190 O.3          1 ACX901   0.0000
    42 O3D         42.3560    24.1860    11.6240 O.3          1 ACX901   0.0000
    43 O5D         44.2120    27.8690    11.2470 O.3          1 ACX901   0.0000
    44 O6D         41.4760    29.1850    11.4750 O.3          1 ACX901   0.0000
    45 C1E         48.9680    26.6350     7.5520 C.3          1 ACX901   0.0000
    46 C2E         49.1790    25.6960     8.7410 C.3          1 ACX901   0.0000
    47 C3E         47.8030    25.4350     9.4130 C.3          1 ACX901   0.0000
    48 C4E         47.0420    26.7460     9.7190 C.3          1 ACX901   0.0000
    49 C5E         47.1360    27.8210     8.6050 C.3          1 ACX901   0.0000
    50 C6E         46.7810    29.2240     9.1220 C.3          1 ACX901   0.0000
    51 O1E         48.0220    26.0360     6.6620 O.3          1 ACX901   0.0000
    52 O2E         49.8590    24.5210     8.2450 O.3          1 ACX901   0.0000
    53 O3E         47.8900    24.6810    10.6430 O.3          1 ACX901   0.0000
    54 O5E         48.4460    27.8970     8.0010 O.3          1 ACX901   0.0000
    55 O6E         46.5390    30.1110     8.0270 O.3          1 ACX901   0.0000
    56 C1F         46.9300    25.9610     2.6360 C.3          1 ACX901   0.0000
    57 C2F         47.5010    24.6540     3.2270 C.3          1 ACX901   0.0000
    58 C3F         47.8010    24.6760     4.7430 C.3          1 ACX901   0.0000
    59 C4F         48.2840    26.0440     5.2570 C.3          1 ACX901   0.0000
    60 C5F         47.5410    27.2130     4.5840 C.3          1 ACX901   0.0000
    61 C6F         47.9950    28.6310     4.9770 C.3          1 ACX901   0.0000
    62 O1F         45.5260    26.1140     2.8930 O.3          1 ACX901   0.0000
    63 O2F         46.5510    23.6220     2.9250 O.3          1 ACX901   0.0000
    64 O3F         48.7220    23.6280     5.1480 O.3          1 ACX901   0.0000
    65 O5F         47.6470    27.0780     3.1590 O.3          1 ACX901   0.0000
    66 O6F         47.3300    29.6070     4.1560 O.3          1 ACX901   0.0000
    67 H1A         41.1006    27.2246     0.5665 H            1 ACX901   0.0000
    68 H2A         42.9920    26.0152    -0.2620 H            1 ACX901   0.0000
    69 H3A         43.3496    25.0938     2.4311 H            1 ACX901   0.0000
    70 H4A         45.2168    26.7546     1.0245 H            1 ACX901   0.0000
    71 H5A         43.5186    27.7173     3.1511 H            1 ACX901   0.0000
    72 H6A1        45.3952    29.0360     1.4762 H            1 ACX901   0.0000
    73 H6A2        45.1616    29.2192     3.0820 H            1 ACX901   0.0000
    74 H8          41.3605    24.6385    -0.4639 H            1 ACX901   0.0000
    75 H9          45.2221    24.0060     1.6590 H            1 ACX901   0.0000
    76 H6A         43.0976    29.9830     1.3849 H            1 ACX901   0.0000
    77 H1B         37.1297    26.2480     5.2246 H            1 ACX901   0.0000
    78 H2B         37.7160    25.1820     3.1037 H            1 ACX901   0.0000
    79 H3B         40.3299    25.2365     4.2753 H            1 ACX901   0.0000
    80 H4B         39.5391    26.2429     1.6882 H            1 ACX901   0.0000
    81 H5B         39.9668    27.9725     3.9270 H            1 ACX901   0.0000
    82 H6B1        38.5622    28.4611     1.4601 H            1 ACX901   0.0000
    83 H6B2        40.1046    28.9128     1.7489 H            1 ACX901   0.0000
    84 H18         38.0920    23.9163     5.5300 H            1 ACX901   0.0000
    85 H19         40.8630    24.1377     2.1106 H            1 ACX901   0.0000
    86 H6B         38.6638    30.6707     2.0781 H            1 ACX901   0.0000
    87 H1C         39.8401    26.2567    10.9723 H            1 ACX901   0.0000
    88 H2C         38.3542    24.9577     9.8229 H            1 ACX901   0.0000
    89 H3C         39.9660    24.7295     7.4791 H            1 ACX901   0.0000
    90 H4C         37.7441    26.5461     7.4138 H            1 ACX901   0.0000
    91 H5C         40.4551    27.4508     7.7661 H            1 ACX901   0.0000
    92 H6C1        38.7362    28.8998     6.6146 H            1 ACX901   0.0000
    93 H6C2        39.7905    29.5739     7.6637 H            1 ACX901   0.0000
    94 H28         39.3967    23.2280    10.3639 H            1 ACX901   0.0000
    95 H29         37.2548    24.2795     8.0686 H            1 ACX901   0.0000
    96 H6C         37.6547    30.3125     8.0645 H            1 ACX901   0.0000
    97 H1D         45.8835    26.9828    11.8797 H            1 ACX901   0.0000
    98 H2D         44.0724    25.7876    12.7903 H            1 ACX901   0.0000
    99 H3D         43.4812    24.8722    10.1357 H            1 ACX901   0.0000
   100 H4D         41.7735    26.6479    11.6134 H            1 ACX901   0.0000
   101 H5D         43.4648    27.5145     9.4594 H            1 ACX901   0.0000
   102 H6D1        41.6338    28.8931     9.5103 H            1 ACX901   0.0000
   103 H6D2        42.8639    29.7478    10.1607 H            1 ACX901   0.0000
   104 H38         46.0166    24.4845    11.3087 H            1 ACX901   0.0000
   105 H39         41.5661    23.9991    11.0399 H            1 ACX901   0.0000
   106 H6D         40.5849    28.7423    11.3748 H            1 ACX901   0.0000
   107 H1E         49.8359    26.7782     7.0763 H            1 ACX901   0.0000
   108 H2E         49.7742    26.1513     9.4031 H            1 ACX901   0.0000
   109 H3E         47.2481    24.9053     8.7715 H            1 ACX901   0.0000
   110 H4E         47.4263    27.1362    10.5557 H            1 ACX901   0.0000
   111 H5E         46.4801    27.5812     7.8893 H            1 ACX901   0.0000
   112 H6E1        47.5404    29.5756     9.6694 H            1 ACX901   0.0000
   113 H6E2        45.9592    29.1683     9.6890 H            1 ACX901   0.0000
   114 H48         50.8478    24.6578     8.3051 H            1 ACX901   0.0000
   115 H49         47.8249    23.7039    10.4403 H            1 ACX901   0.0000
   116 H6E         45.5696    30.0826     7.7830 H            1 ACX901   0.0000
   117 H1F         47.0650    25.9402     1.6454 H            1 ACX901   0.0000
   118 H2F         48.3517    24.4423     2.7459 H            1 ACX901   0.0000
   119 H3F         46.9352    24.4880     5.2066 H            1 ACX901   0.0000
   120 H4F         49.2672    26.1347     5.0987 H            1 ACX901   0.0000
   121 H5F         46.5733    27.1307     4.8223 H            1 ACX901   0.0000
   122 H6F1        48.9837    28.7093     4.8491 H            1 ACX901   0.0000
   123 H6F2        47.7689    28.7967     5.9369 H            1 ACX901   0.0000
   124 H58         46.9905    22.9168     2.3686 H            1 ACX901   0.0000
   125 H59         49.2520    23.9369     5.9377 H            1 ACX901   0.0000
   126 H6F         47.9206    30.4061     4.0436 H            1 ACX901   0.0000
@<TRIPOS>BOND
     1    1    2       1
     2    1    7       1
     3    1   10       1
     4    2    3       1
     5    2    8       1
     6    3    4       1
     7    3    9       1
     8    4    5       1
     9    4   62       1
    10    5    6       1
    11    5   10       1
    12    6   11       1
    13    7   15       1
    14   12   13       1
    15   12   18       1
    16   12   21       1
    17   13   14       1
    18   13   19       1
    19   14   15       1
    20   14   20       1
    21   15   16       1
    22   16   17       1
    23   16   21       1
    24   17   22       1
    25   18   26       1
    26   23   24       1
    27   23   29       1
    28   23   32       1
    29   24   25       1
    30   24   30       1
    31   25   26       1
    32   25   31       1
    33   26   27       1
    34   27   28       1
    35   27   32       1
    36   28   33       1
    37   29   37       1
    38   34   35       1
    39   34   40       1
    40   34   43       1
    41   35   36       1
    42   35   41       1
    43   36   37       1
    44   36   42       1
    45   37   38       1
    46   38   39       1
    47   38   43       1
    48   39   44       1
    49   40   48       1
    50   45   46       1
    51   45   51       1
    52   45   54       1
    53   46   47       1
    54   46   52       1
    55   47   48       1
    56   47   53       1
    57   48   49       1
    58   49   50       1
    59   49   54       1
    60   50   55       1
    61   51   59       1
    62   56   57       1
    63   56   62       1
    64   56   65       1
    65   57   58       1
    66   57   63       1
    67   58   59       1
    68   58   64       1
    69   59   60       1
    70   60   61       1
    71   60   65       1
    72   61   66       1
    73    1   67       1
    74    2   68       1
    75    3   69       1
    76    4   70       1
    77    5   71       1
    78    6   72       1
    79    6   73       1
    80    8   74       1
    81    9   75       1
    82   11   76       1
    83   12   77       1
    84   13   78       1
    85   14   79       1
    86   15   80       1
    87   16   81       1
    88   17   82       1
    89   17   83       1
    90   19   84       1
    91   20   85       1
    92   22   86       1
    93   23   87       1
    94   24   88       1
    95   25   89       1
    96   26   90       1
    97   27   91       1
    98   28   92       1
    99   28   93       1
   100   30   94       1
   101   31   95       1
   102   33   96       1
   103   34   97       1
   104   35   98       1
   105   36   99       1
   106   37  100       1
   107   38  101       1
   108   39  102       1
   109   39  103       1
   110   41  104       1
   111   42  105       1
   112   44  106       1
   113   45  107       1
   114   46  108       1
   115   47  109       1
   116   48  110       1
   117   49  111       1
   118   50  112       1
   119   50  113       1
   120   52  114       1
   121   53  115       1
   122   55  116       1
   123   56  117       1
   124   57  118       1
   125   58  119       1
   126   59  120       1
   127   60  121       1
   128   61  122       1
   129   61  123       1
   130   63  124       1
   131   64  125       1
   132   66  126       1
@<TRIPOS>SUBSTRUCTURE
     1 ACX901      1 GROUP             4 A     ACX     0 **** ACX A 901
