@<TRIPOS>MOLECULE
4nes_UD1_1_ligand
   64    66     1     0     0
SMALL
NO_CHARGES


@<TRIPOS>ATOM
     1 C1'         49.4330    21.7140    38.7740 C.3          1 UD1400   0.0000
     2 C2'         50.1420    22.9550    38.3260 C.3          1 UD1400   0.0000
     3 C3'         49.5570    24.1450    38.9170 C.3          1 UD1400   0.0000
     4 C4'         48.1070    24.2460    38.7090 C.3          1 UD1400   0.0000
     5 C5'         47.4250    22.9590    39.0980 C.3          1 UD1400   0.0000
     6 C6'         45.9920    22.9380    38.7210 C.3          1 UD1400   0.0000
     7 C7'         52.6290    22.5820    37.8180 C.2          1 UD1400   0.0000
     8 C8'         54.0250    22.5610    38.3660 C.3          1 UD1400   0.0000
     9 N2'         51.5660    22.8950    38.7450 N.am         1 UD1400   0.0000
    10 O1'         49.5820    21.5800    40.1420 O.3          1 UD1400   0.0000
    11 O3'         50.2050    25.3120    38.3790 O.3          1 UD1400   0.0000
    12 O4'         47.5600    25.3160    39.4630 O.3          1 UD1400   0.0000
    13 O5'         48.0230    21.8480    38.4380 O.3          1 UD1400   0.0000
    14 O6'         45.1830    22.2100    39.5680 O.3          1 UD1400   0.0000
    15 O7'         52.4110    22.3360    36.6290 O.2          1 UD1400   0.0000
    16 N1          47.2210    14.4230    41.6350 N.pl3        1 UD1400   0.0000
    17 C2          46.2750    13.4840    41.5750 C.2          1 UD1400   0.0000
    18 N3          45.5180    13.3560    40.4870 N.pl3        1 UD1400   0.0000
    19 C4          45.6940    14.1510    39.4230 C.2          1 UD1400   0.0000
    20 C5          46.6670    15.1400    39.4520 C.2          1 UD1400   0.0000
    21 C6          47.4370    15.2660    40.5970 C.2          1 UD1400   0.0000
    22 O2          46.0830    12.7400    42.5170 O.2          1 UD1400   0.0000
    23 O4          44.9090    14.0010    38.3170 O.2          1 UD1400   0.0000
    24 C1B         48.0610    14.5920    42.8440 C.3          1 UD1400   0.0000
    25 C2B         49.2470    13.7160    42.8970 C.3          1 UD1400   0.0000
    26 O2'         49.4940    13.3390    44.2290 O.3          1 UD1400   0.0000
    27 C3B         50.3110    14.5690    42.4200 C.3          1 UD1400   0.0000
    28 C4B         49.9360    15.8840    42.9980 C.3          1 UD1400   0.0000
    29 O4B         48.5230    15.9400    42.9580 O.3          1 UD1400   0.0000
    30 O3B         51.6040    14.1610    42.7930 O.3          1 UD1400   0.0000
    31 C5B         50.4950    17.0310    42.2350 C.3          1 UD1400   0.0000
    32 O5B         50.2370    17.0140    40.8540 O.3          1 UD1400   0.0000
    33 PA          50.9700    18.0020    39.9070 P.3          1 UD1400   0.0000
    34 O1A         52.4440    17.7560    40.0040 O.co2        1 UD1400   0.0000
    35 O2A         50.4480    17.8090    38.5210 O.co2        1 UD1400  -1.0000
    36 O3A         50.7410    19.4590    40.4290 O.3          1 UD1400   0.0000
    37 PB          49.3950    20.1930    40.8690 P.3          1 UD1400   0.0000
    38 O1B         49.4800    20.4490    42.3380 O.co2        1 UD1400   0.0000
    39 O2B         48.1830    19.4500    40.3770 O.co2        1 UD1400  -1.0000
    40 H1'         49.8185    20.9162    38.3104 H            1 UD1400   0.0000
    41 H2'         50.0930    23.0224    37.3295 H            1 UD1400   0.0000
    42 H3'         49.7290    24.1199    39.9018 H            1 UD1400   0.0000
    43 H4'         47.9348    24.4181    37.7391 H            1 UD1400   0.0000
    44 H5'         47.5045    22.8331    40.0868 H            1 UD1400   0.0000
    45 H6'1        45.9169    22.5449    37.8046 H            1 UD1400   0.0000
    46 H6'2        45.6598    23.8811    38.7074 H            1 UD1400   0.0000
    47 H8'1        54.6671    22.3339    37.6338 H            1 UD1400   0.0000
    48 H8'2        54.2501    23.4609    38.7395 H            1 UD1400   0.0000
    49 H8'3        54.0886    21.8742    39.0901 H            1 UD1400   0.0000
    50 H11         51.7965    23.0774    39.7008 H            1 UD1400   0.0000
    51 H12         50.9911    25.5497    38.9496 H            1 UD1400   0.0000
    52 H13         46.7610    25.6844    38.9877 H            1 UD1400   0.0000
    53 H6'         44.4844    22.8094    39.9587 H            1 UD1400   0.0000
    54 H15         44.8058    12.6544    40.4637 H            1 UD1400   0.0000
    55 H16         46.8085    15.7449    38.6684 H            1 UD1400   0.0000
    56 H17         48.1438    15.9709    40.6564 H            1 UD1400   0.0000
    57 H1B         47.4943    14.3919    43.6433 H            1 UD1400   0.0000
    58 H2B         49.1329    12.9154    42.3088 H            1 UD1400   0.0000
    59 H20         49.1835    14.0641    44.8437 H            1 UD1400   0.0000
    60 H3B         50.2617    14.6251    41.4228 H            1 UD1400   0.0000
    61 H4B         50.2455    15.9319    43.9477 H            1 UD1400   0.0000
    62 H23         52.2583    14.4452    42.0922 H            1 UD1400   0.0000
    63 H5B1        51.4866    17.0347    42.3644 H            1 UD1400   0.0000
    64 H5B2        50.1066    17.8719    42.6119 H            1 UD1400   0.0000
@<TRIPOS>BOND
     1    1    2       1
     2    1   10       1
     3    1   13       1
     4    2    3       1
     5    2    9       1
     6    3    4       1
     7    3   11       1
     8    4    5       1
     9    4   12       1
    10    5    6       1
    11    5   13       1
    12    6   14       1
    13    7    8       1
    14    7    9      am
    15    7   15       2
    16   10   37       1
    17   16   17       1
    18   16   21       1
    19   16   24       1
    20   17   18       1
    21   17   22       2
    22   18   19       1
    23   19   20       1
    24   19   23       2
    25   20   21       2
    26   24   25       1
    27   24   29       1
    28   25   26       1
    29   25   27       1
    30   27   28       1
    31   27   30       1
    32   28   29       1
    33   28   31       1
    34   31   32       1
    35   32   33       1
    36   33   34      ar
    37   33   35      ar
    38   33   36       1
    39   36   37       1
    40   37   38      ar
    41   37   39      ar
    42    1   40       1
    43    2   41       1
    44    3   42       1
    45    4   43       1
    46    5   44       1
    47    6   45       1
    48    6   46       1
    49    8   47       1
    50    8   48       1
    51    8   49       1
    52    9   50       1
    53   11   51       1
    54   12   52       1
    55   14   53       1
    56   18   54       1
    57   20   55       1
    58   21   56       1
    59   24   57       1
    60   25   58       1
    61   26   59       1
    62   27   60       1
    63   28   61       1
    64   30   62       1
    65   31   63       1
    66   31   64       1
@<TRIPOS>SUBSTRUCTURE
     1 UD1400      1 GROUP             4 A     UD1     0 **** UD1 A 400
