@<TRIPOS>MOLECULE
1ykg_FMN_1_ligand
   50    52     1     0     0
SMALL
NO_CHARGES


@<TRIPOS>ATOM
     1 N1           8.4480    13.2450    -2.5690 N.2          1 FMN300   0.0000
     2 C2           9.1090    12.8490    -3.6850 C.2          1 FMN300   0.0000
     3 O2           8.5280    12.2960    -4.6100 O.2          1 FMN300   0.0000
     4 N3          10.4620    13.0430    -3.7900 N.pl3        1 FMN300   0.0000
     5 C4          11.2710    13.6720    -2.8620 C.2          1 FMN300   0.0000
     6 O4          12.4760    13.7730    -3.0970 O.2          1 FMN300   0.0000
     7 C4A         10.5850    14.1210    -1.6610 C.2          1 FMN300   0.0000
     8 N5          11.2590    14.7540    -0.6130 N.2          1 FMN300   0.0000
     9 C5A         10.5600    15.1450     0.4840 C.ar         1 FMN300   0.0000
    10 C6          11.2970    15.8300     1.4650 C.ar         1 FMN300   0.0000
    11 C7          10.6850    16.2510     2.6570 C.ar         1 FMN300   0.0000
    12 C7M         11.5080    16.9900     3.6950 C.3          1 FMN300   0.0000
    13 C8           9.3180    15.9830     2.8670 C.ar         1 FMN300   0.0000
    14 C8M          8.6090    16.4100     4.1400 C.3          1 FMN300   0.0000
    15 C9           8.5700    15.3340     1.8670 C.ar         1 FMN300   0.0000
    16 C9A          9.1630    14.8880     0.6620 C.ar         1 FMN300   0.0000
    17 N10          8.4470    14.2050    -0.3120 N.pl3        1 FMN300   0.0000
    18 C10          9.1250    13.8650    -1.5190 C.2          1 FMN300   0.0000
    19 C1'          7.0700    13.6630    -0.1130 C.3          1 FMN300   0.0000
    20 C2'          6.0300    14.6240    -0.6810 C.3          1 FMN300   0.0000
    21 O2'          6.1470    14.6300    -2.0890 O.3          1 FMN300   0.0000
    22 C3'          4.5740    14.2140    -0.4140 C.3          1 FMN300   0.0000
    23 O3'          4.3230    13.0460    -1.1510 O.3          1 FMN300   0.0000
    24 C4'          4.1590    14.0630     1.0770 C.3          1 FMN300   0.0000
    25 O4'          2.8740    14.6170     1.2610 O.3          1 FMN300   0.0000
    26 C5'          4.0900    12.6140     1.6090 C.3          1 FMN300   0.0000
    27 O5'          3.4630    12.5770     2.8920 O.3          1 FMN300   0.0000
    28 P            3.4930    11.2340     3.8070 P.3          1 FMN300   0.0000
    29 O1P          4.9270    11.1060     4.1340 O.co2        1 FMN300   0.0000
    30 O2P          2.6400    11.5630     4.9610 O.co2        1 FMN300  -1.0000
    31 O3P          2.9380    10.1910     2.9200 O.co2        1 FMN300  -1.0000
    32 H1          10.9060    12.6966    -4.6164 H            1 FMN300   0.0000
    33 H2          12.2670    16.0196     1.3129 H            1 FMN300   0.0000
    34 H7M1        10.9296    17.2182     4.4782 H            1 FMN300   0.0000
    35 H7M2        12.2637    16.4087     3.9968 H            1 FMN300   0.0000
    36 H7M3        11.8733    17.8302     3.2943 H            1 FMN300   0.0000
    37 H8M1         7.6500    16.1297     4.0975 H            1 FMN300   0.0000
    38 H8M2         9.0482    15.9773     4.9273 H            1 FMN300   0.0000
    39 H8M3         8.6619    17.4042     4.2335 H            1 FMN300   0.0000
    40 H9           7.5920    15.1838     2.0120 H            1 FMN300   0.0000
    41 H1'1         6.9035    13.5386     0.8652 H            1 FMN300   0.0000
    42 H1'2         6.9928    12.7816    -0.5790 H            1 FMN300   0.0000
    43 H2'          6.1917    15.5445    -0.3253 H            1 FMN300   0.0000
    44 H13          6.8784    14.0066    -2.3654 H            1 FMN300   0.0000
    45 H3'          3.9960    14.9311    -0.8035 H            1 FMN300   0.0000
    46 H15          4.9491    12.3244    -0.8555 H            1 FMN300   0.0000
    47 H4'          4.8078    14.5757     1.6393 H            1 FMN300   0.0000
    48 H17          2.3473    14.5253     0.4159 H            1 FMN300   0.0000
    49 H5'1         5.0174    12.2480     1.6861 H            1 FMN300   0.0000
    50 H5'2         3.5628    12.0542     0.9697 H            1 FMN300   0.0000
@<TRIPOS>BOND
     1    1    2       1
     2    1   18       2
     3    2    3       2
     4    2    4       1
     5    4    5       1
     6    5    6       2
     7    5    7       1
     8    7    8       2
     9    7   18       1
    10    8    9       1
    11    9   10      ar
    12    9   16      ar
    13   10   11      ar
    14   11   12       1
    15   11   13      ar
    16   13   14       1
    17   13   15      ar
    18   15   16      ar
    19   16   17       1
    20   17   18       1
    21   17   19       1
    22   19   20       1
    23   20   21       1
    24   20   22       1
    25   22   23       1
    26   22   24       1
    27   24   25       1
    28   24   26       1
    29   26   27       1
    30   27   28       1
    31   28   29      ar
    32   28   30      ar
    33   28   31      ar
    34    4   32       1
    35   10   33       1
    36   12   34       1
    37   12   35       1
    38   12   36       1
    39   14   37       1
    40   14   38       1
    41   14   39       1
    42   15   40       1
    43   19   41       1
    44   19   42       1
    45   20   43       1
    46   21   44       1
    47   22   45       1
    48   23   46       1
    49   24   47       1
    50   25   48       1
    51   26   49       1
    52   26   50       1
@<TRIPOS>SUBSTRUCTURE
     1 FMN300      1 GROUP             4 A     FMN     0 **** FMN A 300
