@<TRIPOS>MOLECULE
4apu_OR8_1_ligand
   45    47     1     0     0
SMALL
NO_CHARGES


@<TRIPOS>ATOM
     1 CL           1.4440    14.4820    12.5820 Cl           1 OR81933   0.0000
     2 C18         -0.2990    14.2110    12.0490 C.2          1 OR81933   0.0000
     3 N19         -0.8670    13.1610    11.4770 N.pl3        1 OR81933   0.0000
     4 C26         -0.4060    11.8190    11.0460 C.3          1 OR81933   0.0000
     5 N20         -2.2330    13.4390    11.2500 N.2          1 OR81933   0.0000
     6 C21         -2.5060    14.6880    11.6830 C.2          1 OR81933   0.0000
     7 C24         -3.8560    15.3360    11.6100 C.3          1 OR81933   0.0000
     8 C15         -1.3200    15.2210    12.1970 C.2          1 OR81933   0.0000
     9 S14         -1.0740    16.7220    12.8760 S.o2         1 OR81933   0.0000
    10 O16         -2.3330    16.9400    13.4830 O.2          1 OR81933   0.0000
    11 O17         -0.0880    16.7990    13.9210 O.2          1 OR81933   0.0000
    12 N13         -0.6410    17.8220    11.7660 N.3          1 OR81933   0.0000
    13 C12         -1.1890    17.9590    10.4020 C.3          1 OR81933   0.0000
    14 C5          -0.9950    16.7410     9.5100 C.ar         1 OR81933   0.0000
    15 C6           0.2040    16.0250     9.4720 C.ar         1 OR81933   0.0000
    16 C1           0.3290    14.9120     8.6490 C.ar         1 OR81933   0.0000
    17 C4          -2.0670    16.3430     8.7180 C.ar         1 OR81933   0.0000
    18 C3          -1.9480    15.2280     7.9270 C.ar         1 OR81933   0.0000
    19 C2          -0.7610    14.5130     7.9020 C.ar         1 OR81933   0.0000
    20 C7          -0.7380    13.3640     6.9960 C.2          1 OR81933   0.0000
    21 C11         -1.7500    12.3040     7.0130 C.2          1 OR81933   0.0000
    22 C22         -2.9680    12.0360     7.8500 C.3          1 OR81933   0.0000
    23 O10         -1.3910    11.5030     6.0030 O.2          1 OR81933   0.0000
    24 N9          -0.2630    11.9120     5.3610 N.2          1 OR81933   0.0000
    25 C8           0.1500    13.0650     5.9580 C.2          1 OR81933   0.0000
    26 C23          1.3460    13.8980     5.5860 C.3          1 OR81933   0.0000
    27 H1          -1.1723    11.3156    10.6469 H            1 OR81933   0.0000
    28 H2           0.3187    11.9186    10.3642 H            1 OR81933   0.0000
    29 H3          -0.0535    11.3179    11.8363 H            1 OR81933   0.0000
    30 H4          -3.8040    16.2586    11.9923 H            1 OR81933   0.0000
    31 H5          -4.1502    15.3868    10.6556 H            1 OR81933   0.0000
    32 H6          -4.5142    14.7949    12.1334 H            1 OR81933   0.0000
    33 H7           0.3419    17.6889    11.6385 H            1 OR81933   0.0000
    34 H8          -0.7422    18.7393     9.9643 H            1 OR81933   0.0000
    35 H9          -2.1703    18.1360    10.4775 H            1 OR81933   0.0000
    36 H10          0.9752    16.3144    10.0391 H            1 OR81933   0.0000
    37 H11          1.1923    14.4098     8.5990 H            1 OR81933   0.0000
    38 H12         -2.9192    16.8662     8.7250 H            1 OR81933   0.0000
    39 H13         -2.7207    14.9302     7.3664 H            1 OR81933   0.0000
    40 H14         -3.4043    11.1904     7.5425 H            1 OR81933   0.0000
    41 H15         -2.6997    11.9430     8.8088 H            1 OR81933   0.0000
    42 H16         -3.6109    12.7961     7.7560 H            1 OR81933   0.0000
    43 H17          1.8196    13.4750     4.8135 H            1 OR81933   0.0000
    44 H18          1.0457    14.8169     5.3301 H            1 OR81933   0.0000
    45 H19          1.9678    13.9559     6.3670 H            1 OR81933   0.0000
@<TRIPOS>BOND
     1    1    2       1
     2    2    3       1
     3    2    8       2
     4    3    4       1
     5    3    5       1
     6    5    6       2
     7    6    7       1
     8    6    8       1
     9    8    9       1
    10    9   10       2
    11    9   11       2
    12    9   12       1
    13   12   13       1
    14   13   14       1
    15   14   15      ar
    16   14   17      ar
    17   15   16      ar
    18   16   19      ar
    19   17   18      ar
    20   18   19      ar
    21   19   20       1
    22   20   21       2
    23   20   25       1
    24   21   22       1
    25   21   23       1
    26   23   24       1
    27   24   25       2
    28   25   26       1
    29    4   27       1
    30    4   28       1
    31    4   29       1
    32    7   30       1
    33    7   31       1
    34    7   32       1
    35   12   33       1
    36   13   34       1
    37   13   35       1
    38   15   36       1
    39   16   37       1
    40   17   38       1
    41   18   39       1
    42   22   40       1
    43   22   41       1
    44   22   42       1
    45   26   43       1
    46   26   44       1
    47   26   45       1
@<TRIPOS>SUBSTRUCTURE
     1 OR81933     1 GROUP             4 A     OR8     0 **** OR8 A1933
