@<TRIPOS>MOLECULE
1bai_0Q4_1_ligand
  127   127     1     0     0
SMALL
NO_CHARGES


@<TRIPOS>ATOM
     1 N            9.0110    16.0520    33.5660 N.4          1 0Q4125   1.0000
     2 CA           7.7380    15.7040    34.2690 C.3          1 0Q4125   0.0000
     3 C            6.5830    16.5830    33.6910 C.2          1 0Q4125   0.0000
     4 O            6.7320    17.8130    33.5640 O.2          1 0Q4125   0.0000
     5 CB           7.9330    15.8910    35.7790 C.3          1 0Q4125   0.0000
     6 CG           6.7740    15.3950    36.7100 C.3          1 0Q4125   0.0000
     7 CD           6.9490    13.9610    37.3230 C.3          1 0Q4125   0.0000
     8 NE           7.4490    13.9370    38.7040 N.pl3        1 0Q4125   1.0000
     9 CZ           6.7710    14.3790    39.7660 C.cat        1 0Q4125   0.0000
    10 NH1          5.5520    14.8650    39.6020 N.pl3        1 0Q4125   0.0000
    11 NH2          7.3540    14.4510    40.9720 N.pl3        1 0Q4125   0.0000
    12 N1           5.4770    15.9390    33.2840 N.am         1 0Q4125   0.0000
    13 CA1          4.3340    16.6170    32.6700 C.3          1 0Q4125   0.0000
    14 C1           2.9980    16.2560    33.3700 C.2          1 0Q4125   0.0000
    15 O1           2.3670    15.2410    33.1030 O.2          1 0Q4125   0.0000
    16 CB1          4.3300    16.3670    31.0750 C.3          1 0Q4125   0.0000
    17 CG1          3.0980    16.9810    30.4060 C.3          1 0Q4125   0.0000
    18 CG2          5.5790    16.9930    30.4220 C.3          1 0Q4125   0.0000
    19 N2           2.5100    17.1660    34.1940 N.am         1 0Q4125   0.0000
    20 CA2          1.3020    16.9140    34.9570 C.3          1 0Q4125   0.0000
    21 C2          -0.0030    17.4050    34.3440 C.2          1 0Q4125   0.0000
    22 CB2          1.4900    17.4170    36.4090 C.3          1 0Q4125   0.0000
    23 CG3          2.8590    17.0690    37.0590 C.3          1 0Q4125   0.0000
    24 CD1          3.0070    17.6220    38.4760 C.3          1 0Q4125   0.0000
    25 CD2          3.0600    15.5650    37.0710 C.3          1 0Q4125   0.0000
    26 N3          -0.1410    17.1960    33.0470 N.2          1 0Q4125   0.0000
    27 CA3         -1.3440    17.5610    32.2900 C.3          1 0Q4125   0.0000
    28 C3          -2.4520    16.5880    32.7810 C.2          1 0Q4125   0.0000
    29 O2          -2.2050    15.3880    32.9240 O.2          1 0Q4125   0.0000
    30 CB3         -0.9770    17.4800    30.7780 C.3          1 0Q4125   0.0000
    31 CG4         -2.1030    17.1740    29.8710 C.ar         1 0Q4125   0.0000
    32 CD11        -2.5970    15.8810    29.7660 C.ar         1 0Q4125   0.0000
    33 CD21        -2.7080    18.1840    29.1300 C.ar         1 0Q4125   0.0000
    34 CE1         -3.7030    15.5880    28.9350 C.ar         1 0Q4125   0.0000
    35 CE2         -3.8230    17.9050    28.2830 C.ar         1 0Q4125   0.0000
    36 CZ1         -4.3160    16.6040    28.1940 C.ar         1 0Q4125   0.0000
    37 N4          -3.6150    17.1340    33.1380 N.am         1 0Q4125   0.0000
    38 CA4         -4.7260    16.3560    33.6930 C.3          1 0Q4125   0.0000
    39 C4          -6.1110    16.6730    33.1200 C.2          1 0Q4125   0.0000
    40 O3          -6.5340    17.8280    33.0350 O.2          1 0Q4125   0.0000
    41 CB4         -4.7490    16.5280    35.2380 C.3          1 0Q4125   0.0000
    42 CG5         -5.7820    15.7320    36.0120 C.3          1 0Q4125   0.0000
    43 CD3         -7.1330    16.4530    36.1330 C.2          1 0Q4125   0.0000
    44 OE1         -7.1410    17.6570    36.4500 O.co2        1 0Q4125   0.0000
    45 OE2         -8.2040    15.8290    35.9100 O.co2        1 0Q4125  -1.0000
    46 N5          -6.8780    15.6240    32.8750 N.am         1 0Q4125   0.0000
    47 CA5         -8.2070    15.7870    32.3260 C.3          1 0Q4125   0.0000
    48 C5          -9.2930    14.8000    32.8230 C.2          1 0Q4125   0.0000
    49 O4          -9.0260    13.6350    33.1250 O.2          1 0Q4125   0.0000
    50 CB5         -8.1140    15.7090    30.8140 C.3          1 0Q4125   0.0000
    51 N6         -10.5260    15.2950    32.8400 N.am         1 0Q4125   0.0000
    52 CA6        -11.7100    14.5220    33.1910 C.3          1 0Q4125   0.0000
    53 C6         -11.7480    13.3340    32.2150 C.2          1 0Q4125   0.0000
    54 O5         -11.6168    13.5237    30.9703 O.2          1 0Q4125   0.0000
    55 CB6        -12.9640    15.4120    32.9920 C.3          1 0Q4125   0.0000
    56 CG6        -14.3140    14.6970    32.6330 C.3          1 0Q4125   0.0000
    57 CD4        -14.5790    14.5300    31.0850 C.3          1 0Q4125   0.0000
    58 CE         -15.6820    13.5240    30.8280 C.3          1 0Q4125   0.0000
    59 N7         -11.8793    12.1954    32.7292 N.am         1 0Q4125   0.0000
    60 H1           9.4726    16.7900    34.0582 H            1 0Q4125   0.0000
    61 H2           9.6056    15.2485    33.5359 H            1 0Q4125   0.0000
    62 HA           7.5274    14.7428    34.0909 H            1 0Q4125   0.0000
    63 HB1          8.0595    16.8684    35.9486 H            1 0Q4125   0.0000
    64 HB2          8.7625    15.3973    36.0400 H            1 0Q4125   0.0000
    65 HG1          5.9293    15.3978    36.1748 H            1 0Q4125   0.0000
    66 HG2          6.6911    16.0432    37.4670 H            1 0Q4125   0.0000
    67 HD1          7.5935    13.4546    36.7502 H            1 0Q4125   0.0000
    68 HD2          6.0591    13.5052    37.3066 H            1 0Q4125   0.0000
    69 HE           8.3631    13.5626    38.8600 H            1 0Q4125   0.0000
    70 HH11         5.0363    15.1984    40.3912 H            1 0Q4125   0.0000
    71 HH12         5.1460    14.8990    38.6888 H            1 0Q4125   0.0000
    72 HH21         6.8349    14.7839    41.7592 H            1 0Q4125   0.0000
    73 H14          5.4320    14.9475    33.4064 H            1 0Q4125   0.0000
    74 HA1          4.4742    17.5976    32.8068 H            1 0Q4125   0.0000
    75 H16          4.3344    15.3820    30.9023 H            1 0Q4125   0.0000
    76 HG11         3.1310    16.8060    29.4220 H            1 0Q4125   0.0000
    77 HG12         2.2709    16.5706    30.7900 H            1 0Q4125   0.0000
    78 HG13         3.0871    17.9676    30.5689 H            1 0Q4125   0.0000
    79 HG21         5.5580    16.8276    29.4360 H            1 0Q4125   0.0000
    80 HG22         5.5872    17.9779    30.5947 H            1 0Q4125   0.0000
    81 HG23         6.4017    16.5793    30.8119 H            1 0Q4125   0.0000
    82 H23          2.9808    18.0426    34.2934 H            1 0Q4125   0.0000
    83 HA2          1.2190    15.9194    35.0194 H            1 0Q4125   0.0000
    84 H25         -0.7099    17.8566    34.8884 H            1 0Q4125   0.0000
    85 HB21         0.7689    17.0132    36.9719 H            1 0Q4125   0.0000
    86 HB22         1.3930    18.4123    36.4065 H            1 0Q4125   0.0000
    87 HG3          3.5794    17.4716    36.4943 H            1 0Q4125   0.0000
    88 HD11         3.9026    17.3680    38.8411 H            1 0Q4125   0.0000
    89 HD12         2.9260    18.6185    38.4551 H            1 0Q4125   0.0000
    90 HD13         2.2892    17.2414    39.0590 H            1 0Q4125   0.0000
    91 HD21         3.9420    15.3499    37.4903 H            1 0Q4125   0.0000
    92 HD22         2.3268    15.1349    37.5977 H            1 0Q4125   0.0000
    93 HD23         3.0437    15.2190    36.1329 H            1 0Q4125   0.0000
    94 HA3         -1.6046    18.4995    32.5167 H            1 0Q4125   0.0000
    95 HB31        -0.2865    16.7655    30.6654 H            1 0Q4125   0.0000
    96 HB32        -0.5917    18.3617    30.5058 H            1 0Q4125   0.0000
    97 H38         -2.1638    15.1450    30.2863 H            1 0Q4125   0.0000
    98 H39         -2.3571    19.1184    29.1914 H            1 0Q4125   0.0000
    99 HE1         -4.0482    14.6513    28.8768 H            1 0Q4125   0.0000
   100 HE2         -4.2488    18.6401    27.7555 H            1 0Q4125   0.0000
   101 HZ1         -5.0992    16.3993    27.6069 H            1 0Q4125   0.0000
   102 H43         -3.7346    18.1200    33.0216 H            1 0Q4125   0.0000
   103 HA4         -4.5387    15.3922    33.5034 H            1 0Q4125   0.0000
   104 HB41        -4.9104    17.4960    35.4299 H            1 0Q4125   0.0000
   105 HB42        -3.8477    16.2656    35.5827 H            1 0Q4125   0.0000
   106 HG51        -5.4287    15.5620    36.9319 H            1 0Q4125   0.0000
   107 HG52        -5.9275    14.8601    35.5444 H            1 0Q4125   0.0000
   108 H49         -6.5350    14.7055    33.0718 H            1 0Q4125   0.0000
   109 HA5         -8.5143    16.7098    32.5584 H            1 0Q4125   0.0000
   110 HB51        -9.0254    15.8199    30.4178 H            1 0Q4125   0.0000
   111 HB52        -7.5142    16.4357    30.4790 H            1 0Q4125   0.0000
   112 HB53        -7.7410    14.8200    30.5484 H            1 0Q4125   0.0000
   113 H54        -10.6488    16.2572    32.5969 H            1 0Q4125   0.0000
   114 HA6        -11.6530    14.1999    34.1360 H            1 0Q4125   0.0000
   115 HB61       -12.7604    16.0547    32.2534 H            1 0Q4125   0.0000
   116 HB62       -13.1102    15.9172    33.8426 H            1 0Q4125   0.0000
   117 HG61       -15.0636    15.2328    33.0216 H            1 0Q4125   0.0000
   118 HG62       -14.3048    13.7871    33.0477 H            1 0Q4125   0.0000
   119 HD41       -13.7397    14.2153    30.6417 H            1 0Q4125   0.0000
   120 HD42       -14.8470    15.4140    30.7020 H            1 0Q4125   0.0000
   121 H62        -15.8304    13.4364    29.8430 H            1 0Q4125   0.0000
   122 H63        -15.4182    12.6364    31.2056 H            1 0Q4125   0.0000
   123 HE3        -16.5255    13.8351    31.2658 H            1 0Q4125   0.0000
   124 H65        -11.8566    11.3800    32.1508 H            1 0Q4125   0.0000
   125 H66        -12.0066    12.1045    33.7169 H            1 0Q4125   0.0000
   126 H67          8.8062    16.3502    32.6337 H            1 0Q4125   0.0000
   127 HH22         8.3077    14.1718    41.0838 H            1 0Q4125   0.0000
@<TRIPOS>BOND
     1    1    2       1
     2    2    3       1
     3    2    5       1
     4    3    4       2
     5    3   12      am
     6    5    6       1
     7    6    7       1
     8    7    8       1
     9    8    9      ar
    10    9   10      ar
    11    9   11      ar
    12   12   13       1
    13   13   14       1
    14   13   16       1
    15   14   15       2
    16   14   19      am
    17   16   17       1
    18   16   18       1
    19   19   20       1
    20   20   21       1
    21   20   22       1
    22   21   26       2
    23   22   23       1
    24   23   24       1
    25   23   25       1
    26   26   27       1
    27   27   28       1
    28   27   30       1
    29   28   29       2
    30   28   37      am
    31   30   31       1
    32   31   32      ar
    33   31   33      ar
    34   32   34      ar
    35   33   35      ar
    36   34   36      ar
    37   35   36      ar
    38   37   38       1
    39   38   39       1
    40   38   41       1
    41   39   40       2
    42   39   46      am
    43   41   42       1
    44   42   43       1
    45   43   44      ar
    46   43   45      ar
    47   46   47       1
    48   47   48       1
    49   47   50       1
    50   48   49       2
    51   48   51      am
    52   51   52       1
    53   52   53       1
    54   52   55       1
    55   53   54       2
    56   53   59      am
    57   55   56       1
    58   56   57       1
    59   57   58       1
    60    1   60       1
    61    1   61       1
    62    2   62       1
    63    5   63       1
    64    5   64       1
    65    6   65       1
    66    6   66       1
    67    7   67       1
    68    7   68       1
    69    8   69       1
    70   10   70       1
    71   10   71       1
    72   11   72       1
    73   12   73       1
    74   13   74       1
    75   16   75       1
    76   17   76       1
    77   17   77       1
    78   17   78       1
    79   18   79       1
    80   18   80       1
    81   18   81       1
    82   19   82       1
    83   20   83       1
    84   21   84       1
    85   22   85       1
    86   22   86       1
    87   23   87       1
    88   24   88       1
    89   24   89       1
    90   24   90       1
    91   25   91       1
    92   25   92       1
    93   25   93       1
    94   27   94       1
    95   30   95       1
    96   30   96       1
    97   32   97       1
    98   33   98       1
    99   34   99       1
   100   35  100       1
   101   36  101       1
   102   37  102       1
   103   38  103       1
   104   41  104       1
   105   41  105       1
   106   42  106       1
   107   42  107       1
   108   11  127       1
   109   46  108       1
   110   47  109       1
   111   50  110       1
   112   50  111       1
   113   50  112       1
   114   51  113       1
   115   52  114       1
   116   55  115       1
   117   55  116       1
   118   56  117       1
   119   56  118       1
   120   57  119       1
   121   57  120       1
   122   58  121       1
   123   58  122       1
   124   58  123       1
   125   59  124       1
   126   59  125       1
   127    1  126       1
@<TRIPOS>SUBSTRUCTURE
     1 0Q4125      1 GROUP             4 A     0Q4     0 **** 0Q4 A 125
