@<TRIPOS>MOLECULE
1pg3_PRX_1_ligand
   45    47     1     0     0
SMALL
NO_CHARGES


@<TRIPOS>ATOM
     1 O2'         41.2070   144.7750    48.5950 O.3          1 PRX999   0.0000
     2 C2'         41.1480   145.0020    47.2030 C.3          1 PRX999   0.0000
     3 C1'         41.1060   146.5960    46.9570 C.3          1 PRX999   0.0000
     4 O4'         42.4750   147.0120    46.6770 O.3          1 PRX999   0.0000
     5 C4'         43.3880   145.8510    46.6110 C.3          1 PRX999   0.0000
     6 C5'         44.3750   146.0310    45.4580 C.3          1 PRX999   0.0000
     7 O5'         45.2090   147.1460    45.8460 O.3          1 PRX999   0.0000
     8 P           46.3240   147.7160    44.8040 P.3          1 PRX999   0.0000
     9 O1P         47.2090   146.5550    44.6100 O.co2        1 PRX999   0.0000
    10 O2P         46.9790   148.8570    45.5160 O.co2        1 PRX999  -1.0000
    11 O3P         45.5700   148.1330    43.5500 O.3          1 PRX999   0.0000
    12 C1P         44.7190   149.3330    43.4520 C.3          1 PRX999   0.0000
    13 C2P         43.7980   149.4270    42.2550 C.3          1 PRX999   0.0000
    14 C3P         43.3270   148.0680    41.8020 C.3          1 PRX999   0.0000
    15 C3'         42.4490   144.4990    46.4080 C.3          1 PRX999   0.0000
    16 O3'         43.2270   143.3680    47.0210 O.3          1 PRX999   0.0000
    17 N9          40.2370   146.9320    45.7800 N.pl3        1 PRX999   0.0000
    18 C8          40.6360   147.3290    44.4850 C.2          1 PRX999   0.0000
    19 N7          39.6610   147.5840    43.5860 N.2          1 PRX999   0.0000
    20 C5          38.5420   147.3260    44.3880 C.ar         1 PRX999   0.0000
    21 C4          38.8800   146.9190    45.7130 C.ar         1 PRX999   0.0000
    22 N3          38.0390   146.6000    46.7300 N.ar         1 PRX999   0.0000
    23 C2          36.7360   146.6800    46.3690 C.ar         1 PRX999   0.0000
    24 N1          36.2910   147.0510    45.1460 N.ar         1 PRX999   0.0000
    25 C6          37.1480   147.3870    44.0950 C.ar         1 PRX999   0.0000
    26 N6          36.7330   147.7710    42.8300 N.pl3        1 PRX999   0.0000
    27 H2'         40.7612   143.9061    48.8102 H            1 PRX999   0.0000
    28 H2          40.3280   144.5754    46.8215 H            1 PRX999   0.0000
    29 H1'         40.7679   147.0600    47.7758 H            1 PRX999   0.0000
    30 H4'         43.8931   145.7775    47.4710 H            1 PRX999   0.0000
    31 H5'1        43.8887   146.2354    44.6084 H            1 PRX999   0.0000
    32 H5'2        44.9266   145.2058    45.3361 H            1 PRX999   0.0000
    33 H1P1        45.3227   150.1299    43.4313 H            1 PRX999   0.0000
    34 H1P2        44.1500   149.3671    44.2737 H            1 PRX999   0.0000
    35 H2P1        44.2888   149.8667    41.5028 H            1 PRX999   0.0000
    36 H2P2        43.0020   149.9797    42.5018 H            1 PRX999   0.0000
    37 H3P1        42.7227   148.1709    41.0119 H            1 PRX999   0.0000
    38 H3P2        44.1164   147.5094    41.5473 H            1 PRX999   0.0000
    39 H3P3        42.8296   147.6224    42.5463 H            1 PRX999   0.0000
    40 H3'         42.2494   144.3295    45.4429 H            1 PRX999   0.0000
    41 H15         42.6075   142.7817    47.5431 H            1 PRX999   0.0000
    42 H16         41.6022   147.4178    44.2431 H            1 PRX999   0.0000
    43 H17         36.0505   146.4471    47.0588 H            1 PRX999   0.0000
    44 H18         35.7572   147.8164    42.6162 H            1 PRX999   0.0000
    45 H19         37.4093   148.0027    42.1308 H            1 PRX999   0.0000
@<TRIPOS>BOND
     1    1    2       1
     2    2    3       1
     3    2   15       1
     4    3    4       1
     5    3   17       1
     6    4    5       1
     7    5    6       1
     8    5   15       1
     9    6    7       1
    10    7    8       1
    11    8    9      ar
    12    8   10      ar
    13    8   11       1
    14   11   12       1
    15   12   13       1
    16   13   14       1
    17   15   16       1
    18   17   18       1
    19   17   21       1
    20   18   19       2
    21   19   20       1
    22   20   21      ar
    23   20   25      ar
    24   21   22      ar
    25   22   23      ar
    26   23   24      ar
    27   24   25      ar
    28   25   26       1
    29    1   27       1
    30    2   28       1
    31    3   29       1
    32    5   30       1
    33    6   31       1
    34    6   32       1
    35   26   45       1
    36   12   33       1
    37   12   34       1
    38   13   35       1
    39   13   36       1
    40   14   37       1
    41   14   38       1
    42   14   39       1
    43   15   40       1
    44   16   41       1
    45   18   42       1
    46   23   43       1
    47   26   44       1
@<TRIPOS>SUBSTRUCTURE
     1 PRX999      1 GROUP             4 A     PRX     0 **** PRX A 999
