@<TRIPOS>MOLECULE
2rab_NAD_2_ligand
   70    74     1     0     0
SMALL
NO_CHARGES


@<TRIPOS>ATOM
     1 PA          20.1180    37.8590   115.5930 P.3          1 NAD600   0.0000
     2 O1A         20.0960    37.4050   114.1830 O.co2        1 NAD600   0.0000
     3 O2A         21.3400    37.3590   116.2760 O.co2        1 NAD600  -1.0000
     4 O5B         20.0970    39.4730   115.6450 O.3          1 NAD600   0.0000
     5 C5B         21.2910    40.1960   115.8750 C.3          1 NAD600   0.0000
     6 C4B         21.0240    41.6790   115.6760 C.3          1 NAD600   0.0000
     7 O4B         21.0250    42.3670   116.9110 O.3          1 NAD600   0.0000
     8 C3B         22.0910    42.3480   114.8240 C.3          1 NAD600   0.0000
     9 O3B         21.5380    42.7200   113.5820 O.3          1 NAD600   0.0000
    10 C2B         22.5050    43.5870   115.6050 C.3          1 NAD600   0.0000
    11 O2B         22.5420    44.7290   114.7790 O.3          1 NAD600   0.0000
    12 C1B         21.4070    43.7060   116.6480 C.3          1 NAD600   0.0000
    13 N9A         21.7950    44.4790   117.8520 N.pl3        1 NAD600   0.0000
    14 C8A         22.1640    43.9820   119.0770 C.2          1 NAD600   0.0000
    15 N7A         22.4150    45.0220   119.9080 N.2          1 NAD600   0.0000
    16 C5A         22.2170    46.1820   119.2400 C.ar         1 NAD600   0.0000
    17 C6A         22.3370    47.5230   119.6180 C.ar         1 NAD600   0.0000
    18 N6A         22.3470    47.8460   120.9110 N.pl3        1 NAD600   0.0000
    19 N1A         22.0620    48.5110   118.6860 N.ar         1 NAD600   0.0000
    20 C2A         21.6650    48.1700   117.4040 C.ar         1 NAD600   0.0000
    21 N3A         21.5480    46.8390   117.0420 N.ar         1 NAD600   0.0000
    22 C4A         21.8190    45.8550   117.9440 C.ar         1 NAD600   0.0000
    23 O3          18.7970    37.3220   116.3920 O.3          1 NAD600   0.0000
    24 PN          17.2250    37.3050   115.9510 P.3          1 NAD600   0.0000
    25 O1N         17.0160    37.9910   114.6540 O.co2        1 NAD600   0.0000
    26 O2N         16.4480    37.7710   117.1240 O.co2        1 NAD600  -1.0000
    27 O5D         16.8990    35.7380   115.7070 O.3          1 NAD600   0.0000
    28 C5D         16.9890    34.7290   116.7000 C.3          1 NAD600   0.0000
    29 C4D         16.9820    33.3140   116.0930 C.3          1 NAD600   0.0000
    30 O4D         15.6630    32.8550   115.7930 O.3          1 NAD600   0.0000
    31 C3D         17.8010    33.1840   114.8070 C.3          1 NAD600   0.0000
    32 O3D         19.0990    32.6740   115.0440 O.3          1 NAD600   0.0000
    33 C2D         16.9930    32.2510   113.9140 C.3          1 NAD600   0.0000
    34 O2D         17.6120    30.9880   113.7550 O.3          1 NAD600   0.0000
    35 C1D         15.6190    32.1190   114.5740 C.3          1 NAD600   0.0000
    36 N1N         14.6020    32.6450   113.6300 N.ar         1 NAD600   1.0000
    37 C2N         14.2430    31.9120   112.5200 C.ar         1 NAD600   0.0000
    38 C3N         13.2980    32.3920   111.6000 C.ar         1 NAD600   0.0000
    39 C7N         13.1100    31.7050   110.2660 C.2          1 NAD600   0.0000
    40 O7N         13.6670    30.4300   110.0540 O.2          1 NAD600   0.0000
    41 N7N         12.4210    32.3030   109.2950 N.am         1 NAD600   0.0000
    42 C4N         12.7090    33.6380   111.8270 C.ar         1 NAD600   0.0000
    43 C5N         13.0720    34.3750   112.9500 C.ar         1 NAD600   0.0000
    44 C6N         14.0190    33.8660   113.8430 C.ar         1 NAD600   0.0000
    45 H5B1        21.9943    39.8936   115.2316 H            1 NAD600   0.0000
    46 H5B2        21.6042    40.0353   116.8110 H            1 NAD600   0.0000
    47 H4B         20.1332    41.7955   115.2367 H            1 NAD600   0.0000
    48 H3B         22.8717    41.7369   114.6932 H            1 NAD600   0.0000
    49 H5          22.2406    43.1598   113.0226 H            1 NAD600   0.0000
    50 H2B         23.3917    43.4438   116.0446 H            1 NAD600   0.0000
    51 H7          23.2009    44.5851   114.0407 H            1 NAD600   0.0000
    52 H1B         20.6292    44.1693   116.2233 H            1 NAD600   0.0000
    53 H8A         22.2356    43.0137   119.3162 H            1 NAD600   0.0000
    54 H6A1        22.4326    48.8035   121.1865 H            1 NAD600   0.0000
    55 H6A2        22.2689    47.1309   121.6056 H            1 NAD600   0.0000
    56 H2A         21.4622    48.8875   116.7376 H            1 NAD600   0.0000
    57 H5D1        16.2097    34.8172   117.3204 H            1 NAD600   0.0000
    58 H5D2        17.8386    34.8557   117.2119 H            1 NAD600   0.0000
    59 H4D         17.3751    32.6906   116.7689 H            1 NAD600   0.0000
    60 H3D         17.8730    34.0802   114.3692 H            1 NAD600   0.0000
    61 H17         19.7797    33.3407   114.7404 H            1 NAD600   0.0000
    62 H2D         16.8830    32.6751   113.0151 H            1 NAD600   0.0000
    63 H19         17.0475    30.4122   113.1635 H            1 NAD600   0.0000
    64 H1D         15.4307    31.1564   114.7690 H            1 NAD600   0.0000
    65 H2N         14.6650    31.0185   112.3665 H            1 NAD600   0.0000
    66 H7N1        12.2987    31.8457   108.4141 H            1 NAD600   0.0000
    67 H7N2        12.0262    33.2091   109.4471 H            1 NAD600   0.0000
    68 H4N         12.0307    33.9981   111.1865 H            1 NAD600   0.0000
    69 H5N         12.6555    35.2685   113.1181 H            1 NAD600   0.0000
    70 H6N         14.2745    34.4006   114.6486 H            1 NAD600   0.0000
@<TRIPOS>BOND
     1    1    2      ar
     2    1    3      ar
     3    1    4       1
     4    1   23       1
     5    4    5       1
     6    5    6       1
     7    6    7       1
     8    6    8       1
     9    7   12       1
    10    8    9       1
    11    8   10       1
    12   10   11       1
    13   10   12       1
    14   12   13       1
    15   13   14       1
    16   13   22       1
    17   14   15       2
    18   15   16       1
    19   16   17      ar
    20   16   22      ar
    21   17   18       1
    22   17   19      ar
    23   19   20      ar
    24   20   21      ar
    25   21   22      ar
    26   23   24       1
    27   24   25      ar
    28   24   26      ar
    29   24   27       1
    30   27   28       1
    31   28   29       1
    32   29   30       1
    33   29   31       1
    34   30   35       1
    35   31   32       1
    36   31   33       1
    37   33   34       1
    38   33   35       1
    39   35   36       1
    40   36   37      ar
    41   36   44      ar
    42   37   38      ar
    43   38   39       1
    44   38   42      ar
    45   39   40       2
    46   39   41      am
    47   42   43      ar
    48   43   44      ar
    49   44   70       1
    50    5   45       1
    51    5   46       1
    52    6   47       1
    53    8   48       1
    54    9   49       1
    55   10   50       1
    56   11   51       1
    57   12   52       1
    58   14   53       1
    59   18   54       1
    60   18   55       1
    61   20   56       1
    62   43   69       1
    63   28   57       1
    64   28   58       1
    65   29   59       1
    66   31   60       1
    67   32   61       1
    68   33   62       1
    69   34   63       1
    70   35   64       1
    71   37   65       1
    72   41   66       1
    73   41   67       1
    74   42   68       1
@<TRIPOS>SUBSTRUCTURE
     1 NAD600      1 GROUP             4 A     NAD     0 **** NAD A 600
