@<TRIPOS>MOLECULE
./coach420/2jbt/ligand.pdb
 71 72 0 0 0
SMALL
GASTEIGER

@<TRIPOS>ATOM
      1  N1        32.4990   58.2750   86.4370 N.ar  1423  FMN1423    -0.1738
      2  C2        32.1650   59.0700   85.3680 C.ar  1423  FMN1423     0.3726
      3  O2        31.1250   59.7200   85.4310 O.2   1423  FMN1423    -0.2425
      4  N3        32.9950   59.1240   84.2620 N.ar  1423  FMN1423    -0.1503
      5  C4        34.1650   58.3760   84.2290 C.ar  1423  FMN1423     0.3035
      6  O4        34.8580   58.3760   83.2080 O.2   1423  FMN1423    -0.2633
      7  C4A       34.5050   57.5640   85.3200 C.ar  1423  FMN1423     0.1706
      8  N5        35.6660   56.8030   85.3240 N.2   1423  FMN1423    -0.2405
      9  C5A       35.9660   56.0080   86.4180 C.2   1423  FMN1423     0.0768
     10  C6        37.1310   55.2520   86.4110 C.3   1423  FMN1423     0.0688
     11  C7        37.4620   54.4400   87.4950 C.2   1423  FMN1423    -0.0418
     12  C7M       38.6360   53.5030   87.3620 C.3   1423  FMN1423     0.0264
     13  C8        36.6110   54.3740   88.6110 C.2   1423  FMN1423    -0.0281
     14  C8M       36.6170   53.1240   89.4550 C.3   1423  FMN1423     0.0304
     15  C9        35.4450   55.1470   88.6180 C.2   1423  FMN1423     0.0112
     16  C9A       35.1110   55.9610   87.5260 C.2   1423  FMN1423     0.0664
     17  N10       33.9420   56.7240   87.5310 N.pl3 1423  FMN1423    -0.2673
     18  C10       33.6510   57.5140   86.4290 C.ar  1423  FMN1423     0.1628
     19  C1'       33.3460   57.1650   88.8370 C.3   1423  FMN1423     0.1325
     20  C2'       31.9820   56.5210   89.0750 C.3   1423  FMN1423     0.2047
     21  O2'       31.0550   56.8870   88.0840 O.3   1423  FMN1423    -0.2185
     22  C3'       31.4060   56.9370   90.4160 C.3   1423  FMN1423     0.2165
     23  O3'       31.1140   58.3150   90.3930 O.3   1423  FMN1423    -0.2175
     24  C4'       32.3910   56.5950   91.5250 C.3   1423  FMN1423     0.2147
     25  O4'       32.5480   55.1960   91.5900 O.3   1423  FMN1423    -0.2176
     26  C5'       31.9190   57.1160   92.8670 C.3   1423  FMN1423     0.1892
     27  O5'       31.8140   56.0130   93.7260 O.3   1423  FMN1423    -0.2674
     28  P         32.4800   56.0410   95.1780 P.3   1423  FMN1423     0.5327
     29  O1P       33.7370   55.5190   95.0220 O.2   1423  FMN1423    -0.2224
     30  O2P       32.3380   57.0580   95.8230 O.3   1423  FMN1423    -0.1145
     31  O3P       31.8600   55.1900   95.7920 O.3   1423  FMN1423    -0.1145
     32  O1        25.2040   55.4120   84.0950 O.3   1424  4HP1424     0.0000
     33  O2        25.2770   55.1970   86.2690 O.3   1424  4HP1424     0.0000
     34  C7        27.1440   54.3570   85.0480 C.3   1424  4HP1424     0.0310
     35  C1        28.0640   55.1080   84.1130 C.ar  1424  4HP1424    -0.0216
     36  C2        28.0310   54.8590   82.7380 C.ar  1424  4HP1424    -0.0010
     37  C3        28.8800   55.5630   81.8840 C.ar  1424  4HP1424     0.0417
     38  C4        29.7530   56.5170   82.4100 C.ar  1424  4HP1424     0.1957
     39  C5        29.7910   56.7650   83.7850 C.ar  1424  4HP1424     0.0417
     40  C6        28.9450   56.0530   84.6390 C.ar  1424  4HP1424    -0.0010
     41  O4        30.5780   57.2110   81.5840 O.3   1424  4HP1424    -0.2866
     42  C2        63.6360   35.4850  104.0140 C.2   1423  FMN1423     0.3274
     43  O2        64.3470   34.4830  104.0800 O.2   1423  FMN1423    -0.2628
     44  N3        63.9470   36.6390  104.7180 N.am  1423  FMN1423    -0.1318
     45  C4        63.1250   37.7540  104.6310 C.2   1423  FMN1423     0.2907
     46  O4        63.3840   38.7460  105.3120 O.2   1423  FMN1423    -0.2662
     47  C4A       61.9790   37.7160  103.8240 C.2   1423  FMN1423     0.1507
     48  N5        61.1410   38.8120  103.7070 N.2   1423  FMN1423    -0.2417
     49  C5A       60.0140   38.7480  102.9020 C.2   1423  FMN1423     0.0810
     50  C6        59.1820   39.8610  102.7940 C.2   1423  FMN1423     0.0121
     51  C7        58.0400   39.8160  101.9930 C.2   1423  FMN1423    -0.0248
     52  C7M       57.0750   40.9690  102.0710 C.3   1423  FMN1423     0.0307
     53  C8        57.7160   38.6440  101.2870 C.2   1423  FMN1423    -0.0280
     54  C8M       56.2760   38.3710  100.9380 C.3   1423  FMN1423     0.0304
     55  C9        58.5660   37.5370  101.3910 C.2   1423  FMN1423    -0.0053
     56  C9A       59.7130   37.5770  102.1970 C.3   1423  FMN1423     0.1355
     57  N10       60.5590   36.4730  102.3070 N.pl3 1423  FMN1423    -0.2957
     58  C10       61.6770   36.5500  103.1210 C.2   1423  FMN1423     0.0859
     59  C1'       60.6310   35.4760  101.1840 C.3   1423  FMN1423     0.1271
     60  C2'       60.1000   34.1010  101.6100 C.3   1423  FMN1423     0.2044
     61  O2'       60.8320   33.5480  102.6850 O.3   1423  FMN1423    -0.2185
     62  C3'       60.1380   33.1260  100.4410 C.3   1423  FMN1423     0.2164
     63  O3'       61.4770   32.8750  100.0590 O.3   1423  FMN1423    -0.2175
     64  C4'       59.3300   33.6830   99.2730 C.3   1423  FMN1423     0.2147
     65  O4'       57.9710   33.8060   99.6600 O.3   1423  FMN1423    -0.2176
     66  C5'       59.4730   32.8020   98.0390 C.3   1423  FMN1423     0.1892
     67  O5'       58.1910   32.3720   97.6480 O.3   1423  FMN1423    -0.2674
     68  P         57.6850   32.5530   96.1280 P.3   1423  FMN1423     0.5327
     69  O1P       56.5460   33.5440   96.1250 O.3   1423  FMN1423    -0.1145
     70  O2P       58.8250   33.0850   95.2920 O.2   1423  FMN1423    -0.2224
     71  O3P       57.2380   31.2100   95.5920 O.3   1423  FMN1423    -0.1145
@<TRIPOS>BOND
     1     1     2   ar
     2     1    18   ar
     3     2     4   ar
     4     2     3    2
     5     4     5   ar
     6     5     6    2
     7     5     7   ar
     8     7     8    1
     9     7    18   ar
    10     8     9    2
    11     9    10    1
    12     9    16    1
    13    10    11    1
    14    11    12    1
    15    11    13    2
    16    13    15    1
    17    13    14    1
    18    15    16    2
    19    16    17    1
    20    17    18    1
    21    17    19    1
    22    19    20    1
    23    20    21    1
    24    20    22    1
    25    22    23    1
    26    22    24    1
    27    24    25    1
    28    24    26    1
    29    26    27    1
    30    27    28    1
    31    28    29    2
    32    28    31    1
    33    28    30    1
    34    34    35    1
    35    35    36   ar
    36    35    40   ar
    37    36    37   ar
    38    37    38   ar
    39    38    41    1
    40    38    39   ar
    41    39    40   ar
    42    42    43    2
    43    42    44   am
    44    44    45   am
    45    45    47    1
    46    45    46    2
    47    47    58    2
    48    47    48    1
    49    48    49    2
    50    49    56    1
    51    49    50    1
    52    50    51    2
    53    51    53    1
    54    51    52    1
    55    53    54    1
    56    53    55    2
    57    55    56    1
    58    56    57    1
    59    57    59    1
    60    57    58    1
    61    59    60    1
    62    60    62    1
    63    60    61    1
    64    62    64    1
    65    62    63    1
    66    64    66    1
    67    64    65    1
    68    66    67    1
    69    67    68    1
    70    68    70    2
    71    68    71    1
    72    68    69    1
