@<TRIPOS>MOLECULE
1yp4_ADQ_1_ligand
   61    64     1     0     0
SMALL
NO_CHARGES


@<TRIPOS>ATOM
     1 PB           8.1550    29.6520    52.1390 P.3          1 ADQ506   0.0000
     2 O1B          9.1080    28.7690    51.3940 O.co2        1 ADQ506   0.0000
     3 O2B          7.5880    30.9020    51.2590 O.co2        1 ADQ506  -1.0000
     4 O3B          8.8630    30.1550    53.3220 O.3          1 ADQ506   0.0000
     5 PA           6.6150    27.4690    53.2160 P.3          1 ADQ506   0.0000
     6 O1A          6.1510    26.4550    52.2530 O.co2        1 ADQ506   0.0000
     7 O2A          5.5990    27.6770    54.2790 O.co2        1 ADQ506  -1.0000
     8 O3A          6.8980    28.7990    52.4310 O.3          1 ADQ506   0.0000
     9 O5D          8.0870    27.0550    53.8040 O.3          1 ADQ506   0.0000
    10 C5D          8.2160    25.8770    54.6390 C.3          1 ADQ506   0.0000
    11 C4D          9.3720    24.9270    54.2750 C.3          1 ADQ506   0.0000
    12 O4D          8.8920    23.6060    54.5920 O.3          1 ADQ506   0.0000
    13 C3D          9.7630    24.8900    52.7950 C.3          1 ADQ506   0.0000
    14 O3D         11.1780    25.1910    52.6400 O.3          1 ADQ506   0.0000
    15 C2D          9.4390    23.4820    52.2520 C.3          1 ADQ506   0.0000
    16 O2D         10.6000    22.8150    51.6800 O.3          1 ADQ506   0.0000
    17 C1D          8.8110    22.7410    53.4430 C.3          1 ADQ506   0.0000
    18 N9           7.2920    22.3160    53.2810 N.pl3        1 ADQ506   0.0000
    19 C8           6.3040    22.9850    52.6160 C.2          1 ADQ506   0.0000
    20 N7           5.1350    22.3180    52.6950 N.2          1 ADQ506   0.0000
    21 C5           5.3220    21.2290    53.3930 C.ar         1 ADQ506   0.0000
    22 C6           4.5030    20.1340    53.8220 C.ar         1 ADQ506   0.0000
    23 N6           3.2090    20.0920    53.4960 N.pl3        1 ADQ506   0.0000
    24 N1           5.0480    19.0950    54.5890 N.ar         1 ADQ506   0.0000
    25 C2           6.3900    19.0860    54.9590 C.ar         1 ADQ506   0.0000
    26 N3           7.1880    20.1360    54.5500 N.ar         1 ADQ506   0.0000
    27 C4           6.7170    21.2060    53.7860 C.ar         1 ADQ506   0.0000
    28 C1'          8.9590    30.5740    54.7830 C.3          1 ADQ506   0.0000
    29 C2'          8.1300    31.5120    55.7180 C.3          1 ADQ506   0.0000
    30 C3'          8.5120    33.0550    55.5970 C.3          1 ADQ506   0.0000
    31 C4'         10.0550    33.2590    55.6610 C.3          1 ADQ506   0.0000
    32 C5'         10.7470    32.3360    54.5900 C.3          1 ADQ506   0.0000
    33 C6'         12.2930    32.3800    54.5510 C.3          1 ADQ506   0.0000
    34 O2'          6.7070    31.3370    55.4060 O.3          1 ADQ506   0.0000
    35 O3'          7.8870    33.7780    56.6850 O.3          1 ADQ506   0.0000
    36 O4'         10.5200    34.6020    55.3460 O.3          1 ADQ506   0.0000
    37 O5'         10.3720    30.9280    54.7740 O.3          1 ADQ506   0.0000
    38 O6'         12.8040    31.3890    53.5840 O.3          1 ADQ506   0.0000
    39 H5D1         7.3620    25.3605    54.5765 H            1 ADQ506   0.0000
    40 H5D2         8.3532    26.1815    55.5816 H            1 ADQ506   0.0000
    41 H4D         10.1743    25.1395    54.8328 H            1 ADQ506   0.0000
    42 H3D          9.2248    25.5683    52.2947 H            1 ADQ506   0.0000
    43 H5          11.4203    25.1637    51.6702 H            1 ADQ506   0.0000
    44 H2D          8.7453    23.5729    51.5375 H            1 ADQ506   0.0000
    45 H7          10.5060    21.8260    51.7940 H            1 ADQ506   0.0000
    46 H1D          9.3518    21.9200    53.6260 H            1 ADQ506   0.0000
    47 H9           6.4307    23.8527    52.1353 H            1 ADQ506   0.0000
    48 H10          2.6419    19.3256    53.7979 H            1 ADQ506   0.0000
    49 H11          2.8068    20.8269    52.9499 H            1 ADQ506   0.0000
    50 H12          6.7662    18.3387    55.5067 H            1 ADQ506   0.0000
    51 H1'          8.9474    29.7008    55.2702 H            1 ADQ506   0.0000
    52 H2'          8.2811    31.2249    56.6639 H            1 ADQ506   0.0000
    53 H3'          8.1697    33.4106    54.7273 H            1 ADQ506   0.0000
    54 H4'         10.3811    33.0050    56.5716 H            1 ADQ506   0.0000
    55 H5'         10.4158    32.6198    53.6901 H            1 ADQ506   0.0000
    56 H6'1        12.6529    32.1710    55.4603 H            1 ADQ506   0.0000
    57 H6'2        12.5911    33.2942    54.2765 H            1 ADQ506   0.0000
    58 H20          6.3207    32.2107    55.1103 H            1 ADQ506   0.0000
    59 H21          6.9810    34.0911    56.4001 H            1 ADQ506   0.0000
    60 H22         11.3633    34.7895    55.8497 H            1 ADQ506   0.0000
    61 H6'         12.9551    30.5167    54.0490 H            1 ADQ506   0.0000
@<TRIPOS>BOND
     1    1    2      ar
     2    1    3      ar
     3    1    4       1
     4    1    8       1
     5    4   28       1
     6    5    6      ar
     7    5    7      ar
     8    5    8       1
     9    5    9       1
    10    9   10       1
    11   10   11       1
    12   11   12       1
    13   11   13       1
    14   12   17       1
    15   13   14       1
    16   13   15       1
    17   15   16       1
    18   15   17       1
    19   17   18       1
    20   18   19       1
    21   18   27       1
    22   19   20       2
    23   20   21       1
    24   21   22      ar
    25   21   27      ar
    26   22   23       1
    27   22   24      ar
    28   24   25      ar
    29   25   26      ar
    30   26   27      ar
    31   28   29       1
    32   28   37       1
    33   29   30       1
    34   29   34       1
    35   30   31       1
    36   30   35       1
    37   31   32       1
    38   31   36       1
    39   32   33       1
    40   32   37       1
    41   33   38       1
    42   38   61       1
    43   36   60       1
    44   10   39       1
    45   10   40       1
    46   11   41       1
    47   13   42       1
    48   14   43       1
    49   15   44       1
    50   16   45       1
    51   17   46       1
    52   19   47       1
    53   23   48       1
    54   23   49       1
    55   25   50       1
    56   28   51       1
    57   29   52       1
    58   30   53       1
    59   31   54       1
    60   32   55       1
    61   33   56       1
    62   33   57       1
    63   34   58       1
    64   35   59       1
@<TRIPOS>SUBSTRUCTURE
     1 ADQ506      1 GROUP             4 B     ADQ     0 **** ADQ B 506
