@<TRIPOS>MOLECULE
4m87_NAD_1_ligand
   70    74     1     0     0
SMALL
NO_CHARGES


@<TRIPOS>ATOM
     1 PA          36.1670   -25.4760    -4.4080 P.3          1 NAD301   0.0000
     2 O1A         36.2720   -23.9690    -4.5800 O.co2        1 NAD301   0.0000
     3 O2A         36.9880   -26.3980    -5.2720 O.co2        1 NAD301  -1.0000
     4 O5B         34.6390   -25.9330    -4.5600 O.3          1 NAD301   0.0000
     5 C5B         33.5710   -25.0910    -4.1240 C.3          1 NAD301   0.0000
     6 C4B         32.4770   -25.2510    -5.1530 C.3          1 NAD301   0.0000
     7 O4B         31.2340   -24.6750    -4.7150 O.3          1 NAD301   0.0000
     8 C3B         32.8640   -24.5770    -6.4680 C.3          1 NAD301   0.0000
     9 O3B         32.7830   -25.5200    -7.5490 O.3          1 NAD301   0.0000
    10 C2B         31.8180   -23.5190    -6.6340 C.3          1 NAD301   0.0000
    11 O2B         31.5610   -23.2340    -8.0110 O.3          1 NAD301   0.0000
    12 C1B         30.6490   -24.1750    -5.9040 C.3          1 NAD301   0.0000
    13 N9A         29.6010   -23.1710    -5.7240 N.pl3        1 NAD301   0.0000
    14 C8A         29.6870   -22.0220    -5.0410 C.2          1 NAD301   0.0000
    15 N7A         28.5390   -21.3380    -5.1520 N.2          1 NAD301   0.0000
    16 C5A         27.7080   -22.0590    -5.9300 C.ar         1 NAD301   0.0000
    17 C6A         26.3380   -21.9170    -6.4560 C.ar         1 NAD301   0.0000
    18 N6A         25.5920   -20.8320    -6.1510 N.pl3        1 NAD301   0.0000
    19 N1A         25.8520   -22.9150    -7.2260 N.ar         1 NAD301   0.0000
    20 C2A         26.5710   -24.0060    -7.5310 C.ar         1 NAD301   0.0000
    21 N3A         27.8200   -24.1860    -7.0900 N.ar         1 NAD301   0.0000
    22 C4A         28.4210   -23.2620    -6.3120 C.ar         1 NAD301   0.0000
    23 O3          36.3740   -25.7500    -2.8270 O.3          1 NAD301   0.0000
    24 PN          36.2490   -27.1760    -2.1000 P.3          1 NAD301   0.0000
    25 O1N         37.1230   -27.1040    -0.8870 O.co2        1 NAD301   0.0000
    26 O2N         36.4450   -28.3080    -3.0730 O.co2        1 NAD301  -1.0000
    27 O5D         34.7130   -27.1120    -1.5860 O.3          1 NAD301   0.0000
    28 C5D         33.7590   -28.1460    -1.8350 C.3          1 NAD301   0.0000
    29 C4D         32.9860   -28.4870    -0.5750 C.3          1 NAD301   0.0000
    30 O4D         33.8780   -29.0210     0.3940 O.3          1 NAD301   0.0000
    31 C3D         32.3550   -27.2740     0.0940 C.3          1 NAD301   0.0000
    32 O3D         31.0890   -27.6630     0.6340 O.3          1 NAD301   0.0000
    33 C2D         33.2850   -26.9220     1.2280 C.3          1 NAD301   0.0000
    34 O2D         32.6070   -26.2220     2.2700 O.3          1 NAD301   0.0000
    35 C1D         33.6590   -28.3320     1.6230 C.3          1 NAD301   0.0000
    36 N1N         34.8440   -28.4720     2.4400 N.ar         1 NAD301   1.0000
    37 C2N         36.0170   -27.9080     2.0670 C.ar         1 NAD301   0.0000
    38 C3N         37.1450   -28.0680     2.8560 C.ar         1 NAD301   0.0000
    39 C7N         38.4790   -27.4710     2.4780 C.2          1 NAD301   0.0000
    40 O7N         39.2740   -27.2200     3.3670 O.2          1 NAD301   0.0000
    41 N7N         38.7970   -27.2690     1.1950 N.am         1 NAD301   0.0000
    42 C4N         37.0510   -28.8280     4.0180 C.ar         1 NAD301   0.0000
    43 C5N         35.8340   -29.4060     4.3680 C.ar         1 NAD301   0.0000
    44 C6N         34.7330   -29.2220     3.5460 C.ar         1 NAD301   0.0000
    45 H5B1        33.8731   -24.1387    -4.0817 H            1 NAD301   0.0000
    46 H5B2        33.2465   -25.3782    -3.2228 H            1 NAD301   0.0000
    47 H4B         32.3362   -26.2265    -5.3221 H            1 NAD301   0.0000
    48 H3B         33.7773   -24.1738    -6.4102 H            1 NAD301   0.0000
    49 H5          31.8636   -25.4987    -7.9418 H            1 NAD301   0.0000
    50 H2B         32.0953   -22.6849    -6.1572 H            1 NAD301   0.0000
    51 H7          30.8592   -22.5249    -8.0793 H            1 NAD301   0.0000
    52 H1B         30.2960   -24.9348    -6.4499 H            1 NAD301   0.0000
    53 H8A         30.4883   -21.7193    -4.5250 H            1 NAD301   0.0000
    54 H6A1        24.6639   -20.7455    -6.5131 H            1 NAD301   0.0000
    55 H6A2        25.9682   -20.1157    -5.5633 H            1 NAD301   0.0000
    56 H2A         26.1577   -24.7097    -8.1089 H            1 NAD301   0.0000
    57 H5D1        34.2383   -28.9629    -2.1558 H            1 NAD301   0.0000
    58 H5D2        33.1185   -27.8376    -2.5383 H            1 NAD301   0.0000
    59 H4D         32.2777   -29.1603    -0.7870 H            1 NAD301   0.0000
    60 H3D         32.2589   -26.5131    -0.5477 H            1 NAD301   0.0000
    61 H17         30.7010   -28.3979     0.0778 H            1 NAD301   0.0000
    62 H2D         34.0805   -26.4109     0.9025 H            1 NAD301   0.0000
    63 H19         32.2207   -25.3746     1.9058 H            1 NAD301   0.0000
    64 H1D         32.8857   -28.7523     2.0977 H            1 NAD301   0.0000
    65 H2N         36.0694   -27.3759     1.2220 H            1 NAD301   0.0000
    66 H7N1        39.6835   -26.8729     0.9560 H            1 NAD301   0.0000
    67 H7N2        38.1483   -27.5141     0.4745 H            1 NAD301   0.0000
    68 H4N         37.8543   -28.9583     4.5991 H            1 NAD301   0.0000
    69 H5N         35.7547   -29.9486     5.2042 H            1 NAD301   0.0000
    70 H6N         33.8581   -29.6476     3.7773 H            1 NAD301   0.0000
@<TRIPOS>BOND
     1    1    2      ar
     2    1    3      ar
     3    1    4       1
     4    1   23       1
     5    4    5       1
     6    5    6       1
     7    6    7       1
     8    6    8       1
     9    7   12       1
    10    8    9       1
    11    8   10       1
    12   10   11       1
    13   10   12       1
    14   12   13       1
    15   13   14       1
    16   13   22       1
    17   14   15       2
    18   15   16       1
    19   16   17      ar
    20   16   22      ar
    21   17   18       1
    22   17   19      ar
    23   19   20      ar
    24   20   21      ar
    25   21   22      ar
    26   23   24       1
    27   24   25      ar
    28   24   26      ar
    29   24   27       1
    30   27   28       1
    31   28   29       1
    32   29   30       1
    33   29   31       1
    34   30   35       1
    35   31   32       1
    36   31   33       1
    37   33   34       1
    38   33   35       1
    39   35   36       1
    40   36   37      ar
    41   36   44      ar
    42   37   38      ar
    43   38   39       1
    44   38   42      ar
    45   39   40       2
    46   39   41      am
    47   42   43      ar
    48   43   44      ar
    49   44   70       1
    50    5   45       1
    51    5   46       1
    52    6   47       1
    53    8   48       1
    54    9   49       1
    55   10   50       1
    56   11   51       1
    57   12   52       1
    58   14   53       1
    59   18   54       1
    60   18   55       1
    61   20   56       1
    62   43   69       1
    63   28   57       1
    64   28   58       1
    65   29   59       1
    66   31   60       1
    67   32   61       1
    68   33   62       1
    69   34   63       1
    70   35   64       1
    71   37   65       1
    72   41   66       1
    73   41   67       1
    74   42   68       1
@<TRIPOS>SUBSTRUCTURE
     1 NAD301      1 GROUP             4 A     NAD     0 **** NAD A 301
