@<TRIPOS>MOLECULE
2rkf_AB1_1_ligand
   94    97     1     0     0
SMALL
NO_CHARGES


@<TRIPOS>ATOM
     1 C1         -17.1830     4.8640    -7.3260 C.3          1 AB1501   0.0000
     2 C2         -16.5540     2.6760    -6.1360 C.3          1 AB1501   0.0000
     3 N1         -17.9450     2.7180    -5.6600 N.am         1 AB1501   0.0000
     4 C3         -18.8120     3.6970    -5.9170 C.2          1 AB1501   0.0000
     5 N2         -18.3440     4.8060    -6.4570 N.am         1 AB1501   0.0000
     6 C4         -18.5930    -3.3210    -0.0580 C.ar         1 AB1501   0.0000
     7 C5         -19.2050    -4.4150     0.5570 C.ar         1 AB1501   0.0000
     8 C6         -18.4470    -5.4820     1.0440 C.ar         1 AB1501   0.0000
     9 C7         -17.0560    -5.4630     0.9210 C.ar         1 AB1501   0.0000
    10 C8         -16.4400    -4.3710     0.2990 C.ar         1 AB1501   0.0000
    11 C9         -17.2030    -3.3080    -0.1870 C.ar         1 AB1501   0.0000
    12 O1         -19.9970     3.5830    -5.7040 O.2          1 AB1501   0.0000
    13 C10        -18.3980     1.5650    -4.8670 C.3          1 AB1501   0.0000
    14 C11        -17.9180     1.6610    -3.4350 C.2          1 AB1501   0.0000
    15 N3         -18.8130     2.1500    -2.5770 N.am         1 AB1501   0.0000
    16 C12        -18.5100     2.3450    -1.1570 C.3          1 AB1501   0.0000
    17 C13        -18.0390     0.2530    -5.5990 C.3          1 AB1501   0.0000
    18 C14        -18.4320    -0.9790    -4.7940 C.3          1 AB1501   0.0000
    19 C15        -18.6980     0.1640    -6.9740 C.3          1 AB1501   0.0000
    20 O2         -16.7890     1.3300    -3.0980 O.2          1 AB1501   0.0000
    21 C16        -15.5250     5.5050    -2.4300 C.ar         1 AB1501   0.0000
    22 C17        -16.0990     6.3700    -3.3590 C.ar         1 AB1501   0.0000
    23 C18        -17.4830     6.4180    -3.4780 C.ar         1 AB1501   0.0000
    24 C19        -18.2820     5.6040    -2.6710 C.ar         1 AB1501   0.0000
    25 C20        -17.7020     4.7240    -1.7480 C.ar         1 AB1501   0.0000
    26 C21        -16.3150     4.6840    -1.6270 C.ar         1 AB1501   0.0000
    27 C22        -18.5840     3.8520    -0.8770 C.3          1 AB1501   0.0000
    28 C23        -19.6500     1.7170    -0.3580 C.3          1 AB1501   0.0000
    29 C24        -19.9500     0.2660    -0.7280 C.3          1 AB1501   0.0000
    30 C25        -18.9120    -0.7750    -0.2910 C.3          1 AB1501   0.0000
    31 N4         -18.8090    -0.6950     1.1650 N.am         1 AB1501   0.0000
    32 C26        -17.6820    -0.2900     1.7620 C.2          1 AB1501   0.0000
    33 C27        -17.6530    -0.2420     3.2640 C.3          1 AB1501   0.0000
    34 O3         -18.7670    -0.9080     3.8690 O.3          1 AB1501   0.0000
    35 C28        -18.5830    -1.5070     5.0930 C.ar         1 AB1501   0.0000
    36 O4         -21.1780    -0.0690    -0.0950 O.3          1 AB1501   0.0000
    37 C29        -19.4580    -2.1780    -0.5800 C.3          1 AB1501   0.0000
    38 O5         -16.6800     0.0410     1.1530 O.2          1 AB1501   0.0000
    39 C30        -18.4590    -0.7380     6.2550 C.ar         1 AB1501   0.0000
    40 C31        -18.2590    -1.3580     7.4900 C.ar         1 AB1501   0.0000
    41 C32        -18.1820    -2.7440     7.5680 C.ar         1 AB1501   0.0000
    42 C33        -18.2980    -3.5140     6.4140 C.ar         1 AB1501   0.0000
    43 C34        -18.4940    -2.8980     5.1810 C.ar         1 AB1501   0.0000
    44 C35        -18.6140    -3.7620     3.9600 C.3          1 AB1501   0.0000
    45 C36        -18.5460     0.7650     6.2180 C.3          1 AB1501   0.0000
    46 C37        -16.1210     4.0900    -6.5550 C.3          1 AB1501   0.0000
    47 H1         -16.8965     5.8102    -7.4767 H            1 AB1501   0.0000
    48 H2         -17.3735     4.4292    -8.2061 H            1 AB1501   0.0000
    49 H3         -16.4873     2.0594    -6.9205 H            1 AB1501   0.0000
    50 H4         -15.9591     2.3475    -5.4024 H            1 AB1501   0.0000
    51 H5         -18.8199     5.6619    -6.2545 H            1 AB1501   0.0000
    52 H6         -20.2005    -4.4347     0.6501 H            1 AB1501   0.0000
    53 H7         -18.9000    -6.2593     1.4806 H            1 AB1501   0.0000
    54 H8         -16.5066    -6.2207     1.2732 H            1 AB1501   0.0000
    55 H9         -15.4449    -4.3522     0.2019 H            1 AB1501   0.0000
    56 H10        -16.7517    -2.5332    -0.6298 H            1 AB1501   0.0000
    57 H11        -19.3965     1.6124    -4.8378 H            1 AB1501   0.0000
    58 H12        -19.7228     2.3922    -2.9142 H            1 AB1501   0.0000
    59 H13        -17.6212     1.9607    -0.9073 H            1 AB1501   0.0000
    60 H14        -17.0478     0.2334    -5.7296 H            1 AB1501   0.0000
    61 H15        -18.1826    -1.8031    -5.3027 H            1 AB1501   0.0000
    62 H16        -17.9523    -0.9709    -3.9166 H            1 AB1501   0.0000
    63 H17        -19.4191    -0.9719    -4.6342 H            1 AB1501   0.0000
    64 H18        -18.4404    -0.6973    -7.4120 H            1 AB1501   0.0000
    65 H19        -19.6919     0.2010    -6.8703 H            1 AB1501   0.0000
    66 H20        -18.3932     0.9300    -7.5400 H            1 AB1501   0.0000
    67 H21        -14.5298     5.4725    -2.3377 H            1 AB1501   0.0000
    68 H22        -15.5217     6.9499    -3.9338 H            1 AB1501   0.0000
    69 H23        -17.9068     7.0350    -4.1411 H            1 AB1501   0.0000
    70 H24        -19.2776     5.6500    -2.7531 H            1 AB1501   0.0000
    71 H25        -15.8871     4.0679    -0.9657 H            1 AB1501   0.0000
    72 H26        -18.3194     4.0013     0.0757 H            1 AB1501   0.0000
    73 H27        -19.5314     4.1434    -1.0094 H            1 AB1501   0.0000
    74 H28        -20.4768     2.2575    -0.5137 H            1 AB1501   0.0000
    75 H29        -19.4082     1.7496     0.6118 H            1 AB1501   0.0000
    76 H30        -20.0708     0.2044    -1.7188 H            1 AB1501   0.0000
    77 H31        -18.0279    -0.6239    -0.7332 H            1 AB1501   0.0000
    78 H32        -19.5969    -0.9481     1.7264 H            1 AB1501   0.0000
    79 H33        -17.6600     0.7156     3.5520 H            1 AB1501   0.0000
    80 H34        -16.8109    -0.6790     3.5802 H            1 AB1501   0.0000
    81 H35        -21.8503    -0.3290    -0.7882 H            1 AB1501   0.0000
    82 H36        -20.3613    -2.2534    -0.1576 H            1 AB1501   0.0000
    83 H37        -19.5439    -2.2804    -1.5710 H            1 AB1501   0.0000
    84 H38        -18.1711    -0.8050     8.3186 H            1 AB1501   0.0000
    85 H39        -18.0433    -3.1879     8.4533 H            1 AB1501   0.0000
    86 H40        -18.2405    -4.5107     6.4708 H            1 AB1501   0.0000
    87 H41        -18.5249    -4.7230     4.2216 H            1 AB1501   0.0000
    88 H42        -19.5062    -3.6140     3.5333 H            1 AB1501   0.0000
    89 H43        -17.8908    -3.5247     3.3114 H            1 AB1501   0.0000
    90 H44        -18.4338     1.1283     7.1429 H            1 AB1501   0.0000
    91 H45        -17.8239     1.1263     5.6281 H            1 AB1501   0.0000
    92 H46        -19.4381     1.0385     5.8584 H            1 AB1501   0.0000
    93 H47        -15.8939     4.6063    -5.7293 H            1 AB1501   0.0000
    94 H48        -15.3087     4.0112    -7.1328 H            1 AB1501   0.0000
@<TRIPOS>BOND
     1    1    5       1
     2    1   46       1
     3    2    3       1
     4    2   46       1
     5    3    4      am
     6    3   13       1
     7    4    5      am
     8    4   12       2
     9    6    7      ar
    10    6   11      ar
    11    6   37       1
    12    7    8      ar
    13    8    9      ar
    14    9   10      ar
    15   10   11      ar
    16   13   14       1
    17   13   17       1
    18   14   15      am
    19   14   20       2
    20   15   16       1
    21   16   27       1
    22   16   28       1
    23   17   18       1
    24   17   19       1
    25   21   22      ar
    26   21   26      ar
    27   22   23      ar
    28   23   24      ar
    29   24   25      ar
    30   25   26      ar
    31   25   27       1
    32   28   29       1
    33   29   30       1
    34   29   36       1
    35   30   31       1
    36   30   37       1
    37   31   32      am
    38   32   33       1
    39   32   38       2
    40   33   34       1
    41   34   35       1
    42   35   39      ar
    43   35   43      ar
    44   39   40      ar
    45   39   45       1
    46   40   41      ar
    47   41   42      ar
    48   42   43      ar
    49   43   44       1
    50    1   47       1
    51    1   48       1
    52    2   49       1
    53    2   50       1
    54    5   51       1
    55    7   52       1
    56    8   53       1
    57    9   54       1
    58   10   55       1
    59   11   56       1
    60   13   57       1
    61   15   58       1
    62   16   59       1
    63   17   60       1
    64   18   61       1
    65   18   62       1
    66   18   63       1
    67   19   64       1
    68   19   65       1
    69   19   66       1
    70   21   67       1
    71   22   68       1
    72   23   69       1
    73   24   70       1
    74   26   71       1
    75   27   72       1
    76   27   73       1
    77   28   74       1
    78   28   75       1
    79   29   76       1
    80   30   77       1
    81   31   78       1
    82   33   79       1
    83   33   80       1
    84   36   81       1
    85   37   82       1
    86   37   83       1
    87   40   84       1
    88   41   85       1
    89   42   86       1
    90   44   87       1
    91   44   88       1
    92   44   89       1
    93   45   90       1
    94   45   91       1
    95   45   92       1
    96   46   93       1
    97   46   94       1
@<TRIPOS>SUBSTRUCTURE
     1 AB1501      1 GROUP             4 A     AB1     0 **** AB1 A 501
