@<TRIPOS>MOLECULE
3uxy_NAD_1_ligand
   74    78     1     0     0
SMALL
NO_CHARGES


@<TRIPOS>ATOM
     1 PA         -16.0350    46.3500    61.5000 P.3          1 NAD245   0.0000
     2 O1A        -16.5630    47.5930    62.4630 O.co2        1 NAD245   0.0000
     3 O2A        -17.1020    45.4410    61.1160 O.co2        1 NAD245  -1.0000
     4 O5B        -15.3680    46.8970    60.0590 O.3          1 NAD245   0.0000
     5 C5B        -14.8900    45.9770    59.0840 C.3          1 NAD245   0.0000
     6 C4B        -15.5000    46.1260    57.6910 C.3          1 NAD245   0.0000
     7 O4B        -15.4240    45.0080    56.7520 O.3          1 NAD245   0.0000
     8 C3B        -17.0410    46.5520    57.6260 C.3          1 NAD245   0.0000
     9 O3B        -17.4260    47.8760    57.4640 O.3          1 NAD245   0.0000
    10 C2B        -17.6540    45.5650    56.6280 C.3          1 NAD245   0.0000
    11 O2B        -18.8720    45.9290    56.0170 O.3          1 NAD245   0.0000
    12 C1B        -16.4450    45.1820    55.8270 C.3          1 NAD245   0.0000
    13 N9A        -16.8630    43.9730    55.1320 N.pl3        1 NAD245   0.0000
    14 C8A        -17.2990    42.8260    55.6380 C.2          1 NAD245   0.0000
    15 N7A        -17.7630    42.0190    54.5580 N.2          1 NAD245   0.0000
    16 C5A        -17.5910    42.7490    53.3840 C.ar         1 NAD245   0.0000
    17 C6A        -17.8670    42.4570    52.0610 C.ar         1 NAD245   0.0000
    18 N6A        -18.4850    41.1850    51.7300 N.pl3        1 NAD245   0.0000
    19 N1A        -17.5990    43.3670    51.1110 N.ar         1 NAD245   0.0000
    20 C2A        -17.0660    44.5700    51.4360 C.ar         1 NAD245   0.0000
    21 N3A        -16.7840    44.8720    52.7460 N.ar         1 NAD245   0.0000
    22 C4A        -17.0560    43.9450    53.7000 C.ar         1 NAD245   0.0000
    23 O3         -14.8830    45.5120    62.3710 O.3          1 NAD245   0.0000
    24 PN         -13.3320    46.1120    62.3910 P.3          1 NAD245   0.0000
    25 O1N        -12.5500    45.5740    63.7390 O.co2        1 NAD245   0.0000
    26 O2N        -13.3680    47.7720    62.3060 O.co2        1 NAD245  -1.0000
    27 O5D        -12.5860    45.5180    61.0190 O.3          1 NAD245   0.0000
    28 C5D        -11.3390    46.0450    60.5980 C.3          1 NAD245   0.0000
    29 C4D        -10.2680    44.9640    60.4610 C.3          1 NAD245   0.0000
    30 O4D         -9.5940    44.6270    61.6740 O.3          1 NAD245   0.0000
    31 C3D        -10.7200    43.5690    59.8910 C.3          1 NAD245   0.0000
    32 O3D         -9.9160    42.9650    58.9130 O.3          1 NAD245   0.0000
    33 C2D        -10.9750    42.7760    61.2160 C.3          1 NAD245   0.0000
    34 O2D        -11.2300    41.3880    61.1480 O.3          1 NAD245   0.0000
    35 C1D         -9.7100    43.2600    61.8860 C.3          1 NAD245   0.0000
    36 N1N         -9.6290    42.9530    63.3090 N.4          1 NAD245   1.0000
    37 C2N        -10.4470    43.6090    64.3020 C.3          1 NAD245   0.0000
    38 C3N        -10.3930    42.9160    65.7450 C.3          1 NAD245   0.0000
    39 C7N        -11.1030    43.5910    66.9170 C.2          1 NAD245   0.0000
    40 O7N        -12.1566    44.1102    66.7189 O.2          1 NAD245   0.0000
    41 N7N        -10.7268    43.2256    68.2676 N.am         1 NAD245   0.0000
    42 C4N         -9.0760    42.2910    66.0360 C.2          1 NAD245   0.0000
    43 C5N         -8.0520    42.1660    65.0550 C.2          1 NAD245   0.0000
    44 C6N         -8.2510    42.5190    63.6540 C.3          1 NAD245   0.0000
    45 H5B1       -15.0860    45.0521    59.4097 H            1 NAD245   0.0000
    46 H5B2       -13.9008    46.0992    59.0028 H            1 NAD245   0.0000
    47 H4B        -14.9973    46.8739    57.2575 H            1 NAD245   0.0000
    48 H3B        -17.4170    46.2840    58.5130 H            1 NAD245   0.0000
    49 H5         -17.0582    48.2271    56.6029 H            1 NAD245   0.0000
    50 H2B        -17.8710    44.7531    57.1699 H            1 NAD245   0.0000
    51 H7         -18.6844    46.4288    55.1714 H            1 NAD245   0.0000
    52 H1B        -16.2112    45.9022    55.1738 H            1 NAD245   0.0000
    53 H8A        -17.3016    42.5727    56.6054 H            1 NAD245   0.0000
    54 H6A1       -18.6898    40.9616    50.7770 H            1 NAD245   0.0000
    55 H6A2       -18.7057    40.5326    52.4551 H            1 NAD245   0.0000
    56 H2A        -16.8772    45.2408    50.7188 H            1 NAD245   0.0000
    57 H5D1       -11.0315    46.7188    61.2699 H            1 NAD245   0.0000
    58 H5D2       -11.4613    46.4905    59.7111 H            1 NAD245   0.0000
    59 H4D         -9.5750    45.3213    59.8349 H            1 NAD245   0.0000
    60 H3D        -11.6160    43.7125    59.4708 H            1 NAD245   0.0000
    61 H17         -9.1306    43.5524    58.7178 H            1 NAD245   0.0000
    62 H2D        -11.7489    43.2045    61.6824 H            1 NAD245   0.0000
    63 H19        -12.2139    41.2339    61.0579 H            1 NAD245   0.0000
    64 H1D         -8.9368    42.8151    61.4341 H            1 NAD245   0.0000
    65 H2N1       -11.3951    43.6018    63.9841 H            1 NAD245   0.0000
    66 H2N2       -10.1335    44.5541    64.3943 H            1 NAD245   0.0000
    67 H3N        -10.9681    42.1107    65.6008 H            1 NAD245   0.0000
    68 H7N1       -11.4291    43.1246    68.9723 H            1 NAD245   0.0000
    69 H7N2        -9.7648    43.0744    68.4951 H            1 NAD245   0.0000
    70 H4N         -8.9024    41.9445    66.9578 H            1 NAD245   0.0000
    71 H5N         -7.1573    41.8211    65.3389 H            1 NAD245   0.0000
    72 H6N1        -7.6247    43.2656    63.4296 H            1 NAD245   0.0000
    73 H6N2        -8.0287    41.7186    63.0972 H            1 NAD245   0.0000
    74 H1N        -10.0776    42.0593    63.3022 H            1 NAD245   0.0000
@<TRIPOS>BOND
     1    1    2      ar
     2    1    3      ar
     3    1    4       1
     4    1   23       1
     5    4    5       1
     6    5    6       1
     7    6    7       1
     8    6    8       1
     9    7   12       1
    10    8    9       1
    11    8   10       1
    12   10   11       1
    13   10   12       1
    14   12   13       1
    15   13   14       1
    16   13   22       1
    17   14   15       2
    18   15   16       1
    19   16   17      ar
    20   16   22      ar
    21   17   18       1
    22   17   19      ar
    23   19   20      ar
    24   20   21      ar
    25   21   22      ar
    26   23   24       1
    27   24   25      ar
    28   24   26      ar
    29   24   27       1
    30   27   28       1
    31   28   29       1
    32   29   30       1
    33   29   31       1
    34   30   35       1
    35   31   32       1
    36   31   33       1
    37   33   34       1
    38   33   35       1
    39   35   36       1
    40   36   37       1
    41   36   44       1
    42   37   38       1
    43   38   39       1
    44   38   42       1
    45   39   40       2
    46   39   41      am
    47   42   43       2
    48   43   44       1
    49   44   73       1
    50    5   45       1
    51    5   46       1
    52    6   47       1
    53    8   48       1
    54    9   49       1
    55   10   50       1
    56   11   51       1
    57   12   52       1
    58   14   53       1
    59   18   54       1
    60   18   55       1
    61   20   56       1
    62   44   72       1
    63   28   57       1
    64   28   58       1
    65   29   59       1
    66   31   60       1
    67   32   61       1
    68   33   62       1
    69   34   63       1
    70   35   64       1
    71   37   65       1
    72   37   66       1
    73   38   67       1
    74   41   68       1
    75   41   69       1
    76   42   70       1
    77   43   71       1
    78   36   74       1
@<TRIPOS>SUBSTRUCTURE
     1 NAD245      1 GROUP             4 C     NAD     0 **** NAD C 245
