@<TRIPOS>MOLECULE
3dtt_NAP_1_ligand
   73    77     1     0     0
SMALL
NO_CHARGES


@<TRIPOS>ATOM
     1 PA          22.4170    44.9230    21.0760 P.3          1 NAP300   0.0000
     2 O1A         21.9770    44.5400    19.7130 O.co2        1 NAP300   0.0000
     3 O2A         22.0420    43.9220    22.1040 O.co2        1 NAP300  -1.0000
     4 O5B         21.6990    46.3090    21.4150 O.3          1 NAP300   0.0000
     5 C5B         21.7260    46.8180    22.7270 C.3          1 NAP300   0.0000
     6 C4B         21.2950    48.2730    22.6580 C.3          1 NAP300   0.0000
     7 O4B         20.0420    48.3480    21.9820 O.3          1 NAP300   0.0000
     8 C3B         21.1220    48.8650    24.0530 C.3          1 NAP300   0.0000
     9 O3B         21.6350    50.1770    24.1480 O.3          1 NAP300   0.0000
    10 C2B         19.6270    48.8690    24.2180 C.3          1 NAP300   0.0000
    11 O2B         19.1320    49.9120    25.0320 O.3          1 NAP300   0.0000
    12 C1B         19.1300    49.0390    22.7860 C.3          1 NAP300   0.0000
    13 N9A         17.7640    48.5220    22.7030 N.pl3        1 NAP300   0.0000
    14 C8A         17.3320    47.2160    22.8120 C.2          1 NAP300   0.0000
    15 N7A         15.9810    47.2240    22.7050 N.2          1 NAP300   0.0000
    16 C5A         15.5490    48.4970    22.5480 C.ar         1 NAP300   0.0000
    17 C6A         14.2810    49.0830    22.4020 C.ar         1 NAP300   0.0000
    18 N6A         13.1640    48.3580    22.3390 N.pl3        1 NAP300   0.0000
    19 N1A         14.1960    50.4580    22.2410 N.ar         1 NAP300   0.0000
    20 C2A         15.3290    51.2540    22.2540 C.ar         1 NAP300   0.0000
    21 N3A         16.5760    50.6710    22.4080 N.ar         1 NAP300   0.0000
    22 C4A         16.6760    49.3190    22.5480 C.ar         1 NAP300   0.0000
    23 O3          23.9480    45.3450    21.2300 O.3          1 NAP300   0.0000
    24 PN          25.2370    44.9240    20.3830 P.3          1 NAP300   0.0000
    25 O1N         26.3100    45.8230    20.8400 O.co2        1 NAP300   0.0000
    26 O2N         25.4600    43.4620    20.4560 O.co2        1 NAP300  -1.0000
    27 O5D         24.8620    45.2980    18.8550 O.3          1 NAP300   0.0000
    28 C5D         24.4950    46.6090    18.5060 C.3          1 NAP300   0.0000
    29 C4D         24.1920    46.6940    17.0150 C.3          1 NAP300   0.0000
    30 O4D         25.3830    46.4510    16.2880 O.3          1 NAP300   0.0000
    31 C3D         23.1630    45.6820    16.5180 C.3          1 NAP300   0.0000
    32 O3D         22.2950    46.2490    15.5480 O.3          1 NAP300   0.0000
    33 C2D         23.9990    44.5800    15.8950 C.3          1 NAP300   0.0000
    34 O2D         23.2920    43.8450    14.9300 O.3          1 NAP300   0.0000
    35 C1D         25.1560    45.4120    15.3450 C.3          1 NAP300   0.0000
    36 N1N         26.4440    44.7160    15.1860 N.ar         1 NAP300   1.0000
    37 C2N         26.9280    43.9160    16.2030 C.ar         1 NAP300   0.0000
    38 C3N         28.1720    43.3070    16.0570 C.ar         1 NAP300   0.0000
    39 C7N         28.8020    42.5950    17.2130 C.2          1 NAP300   0.0000
    40 O7N         30.1930    42.4990    17.2880 O.2          1 NAP300   0.0000
    41 N7N         28.0180    42.0890    18.1500 N.am         1 NAP300   0.0000
    42 C4N         28.9080    43.4890    14.8970 C.ar         1 NAP300   0.0000
    43 C5N         28.4110    44.3090    13.8940 C.ar         1 NAP300   0.0000
    44 C6N         27.1770    44.9310    14.0460 C.ar         1 NAP300   0.0000
    45 P2B         19.5080    49.9630    26.6000 P.3          1 NAP300   0.0000
    46 O1X         20.8880    50.5280    26.7000 O.co2        1 NAP300   0.0000
    47 O2X         18.5140    50.8580    27.3010 O.co2        1 NAP300  -1.0000
    48 O3X         19.4540    48.5410    27.0890 O.co2        1 NAP300  -1.0000
    49 H5B1        22.6515    46.7529    23.1000 H            1 NAP300   0.0000
    50 H5B2        21.0958    46.3019    23.3070 H            1 NAP300   0.0000
    51 H4B         21.9788    48.8004    22.1537 H            1 NAP300   0.0000
    52 H3B         21.5471    48.2736    24.7382 H            1 NAP300   0.0000
    53 H5          21.4993    50.5215    25.0769 H            1 NAP300   0.0000
    54 H2B         19.3244    47.9866    24.5782 H            1 NAP300   0.0000
    55 H1B         19.1364    50.0088    22.5422 H            1 NAP300   0.0000
    56 H8A         17.9100    46.4110    22.9455 H            1 NAP300   0.0000
    57 H6A1        12.2788    48.8114    22.2347 H            1 NAP300   0.0000
    58 H6A2        13.2113    47.3607    22.3960 H            1 NAP300   0.0000
    59 H2A         15.2473    52.2455    22.1526 H            1 NAP300   0.0000
    60 H5D1        25.2460    47.2315    18.7260 H            1 NAP300   0.0000
    61 H5D2        23.6810    46.8726    19.0236 H            1 NAP300   0.0000
    62 H4D         23.8668    47.6157    16.8035 H            1 NAP300   0.0000
    63 H3D         22.6339    45.3217    17.2863 H            1 NAP300   0.0000
    64 H16         21.8062    47.0232    15.9501 H            1 NAP300   0.0000
    65 H2D         24.3343    43.9655    16.6091 H            1 NAP300   0.0000
    66 H18         23.8852    43.1343    14.5517 H            1 NAP300   0.0000
    67 H1D         24.8872    45.8135    14.4695 H            1 NAP300   0.0000
    68 H2N         26.3910    43.7757    17.0349 H            1 NAP300   0.0000
    69 H7N1        28.4178    41.6093    18.9311 H            1 NAP300   0.0000
    70 H7N2        27.0254    42.1860    18.0775 H            1 NAP300   0.0000
    71 H4N         29.7906    43.0328    14.7836 H            1 NAP300   0.0000
    72 H5N         28.9422    44.4530    13.0591 H            1 NAP300   0.0000
    73 H6N         26.8253    45.5320    13.3283 H            1 NAP300   0.0000
@<TRIPOS>BOND
     1    1    2      ar
     2    1    3      ar
     3    1    4       1
     4    1   23       1
     5    4    5       1
     6    5    6       1
     7    6    7       1
     8    6    8       1
     9    7   12       1
    10    8    9       1
    11    8   10       1
    12   10   11       1
    13   10   12       1
    14   11   45       1
    15   12   13       1
    16   13   14       1
    17   13   22       1
    18   14   15       2
    19   15   16       1
    20   16   17      ar
    21   16   22      ar
    22   17   18       1
    23   17   19      ar
    24   19   20      ar
    25   20   21      ar
    26   21   22      ar
    27   23   24       1
    28   24   25      ar
    29   24   26      ar
    30   24   27       1
    31   27   28       1
    32   28   29       1
    33   29   30       1
    34   29   31       1
    35   30   35       1
    36   31   32       1
    37   31   33       1
    38   33   34       1
    39   33   35       1
    40   35   36       1
    41   36   37      ar
    42   36   44      ar
    43   37   38      ar
    44   38   39       1
    45   38   42      ar
    46   39   40       2
    47   39   41      am
    48   42   43      ar
    49   43   44      ar
    50   45   46      ar
    51   45   47      ar
    52   45   48      ar
    53   43   72       1
    54    5   49       1
    55    5   50       1
    56    6   51       1
    57    8   52       1
    58    9   53       1
    59   10   54       1
    60   12   55       1
    61   14   56       1
    62   18   57       1
    63   18   58       1
    64   20   59       1
    65   44   73       1
    66   28   60       1
    67   28   61       1
    68   29   62       1
    69   31   63       1
    70   32   64       1
    71   33   65       1
    72   34   66       1
    73   35   67       1
    74   37   68       1
    75   41   69       1
    76   41   70       1
    77   42   71       1
@<TRIPOS>SUBSTRUCTURE
     1 NAP300      1 GROUP             4 A     NAP     0 **** NAP A 300
