@<TRIPOS>MOLECULE
2f6r_ACO_1_ligand
   85    87     1     0     0
SMALL
NO_CHARGES


@<TRIPOS>ATOM
     1 N1A         -9.7380    27.8390    31.2610 N.ar         1 ACO270   0.0000
     2 C2A         -9.8380    27.1460    30.1150 C.ar         1 ACO270   0.0000
     3 N3A         -8.9490    26.2040    29.7460 N.ar         1 ACO270   0.0000
     4 C4A         -7.8880    25.8900    30.5290 C.ar         1 ACO270   0.0000
     5 C5A         -7.7250    26.5970    31.8040 C.ar         1 ACO270   0.0000
     6 C6A         -8.7060    27.6260    32.1210 C.ar         1 ACO270   0.0000
     7 N6A         -8.5990    28.3240    33.2600 N.pl3        1 ACO270   0.0000
     8 N7A         -6.6340    26.0890    32.3990 N.2          1 ACO270   0.0000
     9 C8A         -6.1200    25.1490    31.5820 C.2          1 ACO270   0.0000
    10 N9A         -6.8630    25.0510    30.4500 N.pl3        1 ACO270   0.0000
    11 C1B         -6.6070    24.1090    29.3310 C.3          1 ACO270   0.0000
    12 C2B         -5.1020    23.9460    29.1130 C.3          1 ACO270   0.0000
    13 O2B         -4.4430    25.0430    28.4550 O.3          1 ACO270   0.0000
    14 C3B         -5.0720    22.6490    28.3510 C.3          1 ACO270   0.0000
    15 O3B         -5.3050    22.8770    26.9550 O.3          1 ACO270   0.0000
    16 P3B         -4.5040    22.0120    25.8350 P.3          1 ACO270   0.0000
    17 O7A         -5.0650    22.6370    24.5740 O.co2        1 ACO270   0.0000
    18 O8A         -4.9180    20.5930    26.0630 O.co2        1 ACO270  -1.0000
    19 O9A         -3.0510    22.3380    26.1180 O.co2        1 ACO270  -1.0000
    20 C4B         -6.2320    21.8590    28.9190 C.3          1 ACO270   0.0000
    21 O4B         -7.1040    22.7950    29.5420 O.3          1 ACO270   0.0000
    22 C5B         -5.7700    20.8380    29.9400 C.3          1 ACO270   0.0000
    23 O5B         -4.9990    21.5160    30.9260 O.3          1 ACO270   0.0000
    24 P1A         -3.9910    20.6970    31.8550 P.3          1 ACO270   0.0000
    25 O1A         -3.4490    21.6510    32.9010 O.co2        1 ACO270   0.0000
    26 O2A         -3.0330    19.8850    31.0310 O.co2        1 ACO270  -1.0000
    27 O3A         -5.1120    19.7290    32.4230 O.3          1 ACO270   0.0000
    28 P2A         -5.0250    18.8790    33.8000 P.3          1 ACO270   0.0000
    29 O4A         -6.1740    17.9440    33.6950 O.co2        1 ACO270   0.0000
    30 O5A         -3.6470    18.4770    34.0780 O.co2        1 ACO270  -1.0000
    31 O6A         -5.3800    19.9540    34.9060 O.3          1 ACO270   0.0000
    32 CBP         -6.5940    21.7910    35.8340 C.3          1 ACO270   0.0000
    33 CCP         -6.6270    20.5850    34.9160 C.3          1 ACO270   0.0000
    34 CDP         -7.9770    22.4170    35.7480 C.3          1 ACO270   0.0000
    35 CEP         -6.2370    21.3080    37.2440 C.3          1 ACO270   0.0000
    36 CAP         -5.5480    22.8180    35.3510 C.3          1 ACO270   0.0000
    37 OAP         -5.6980    23.1090    33.9400 O.3          1 ACO270   0.0000
    38 C9P         -5.5360    24.1060    36.1270 C.2          1 ACO270   0.0000
    39 O9P         -5.0890    24.1640    37.2670 O.2          1 ACO270   0.0000
    40 N8P         -6.0770    25.1070    35.4690 N.am         1 ACO270   0.0000
    41 C7P         -6.1810    26.4150    36.1270 C.3          1 ACO270   0.0000
    42 C6P         -4.9000    27.2840    36.0390 C.3          1 ACO270   0.0000
    43 C5P         -4.7340    27.7220    34.6000 C.2          1 ACO270   0.0000
    44 O5P         -5.5110    28.4780    34.0530 O.2          1 ACO270   0.0000
    45 N4P         -3.6970    27.2500    33.9280 N.am         1 ACO270   0.0000
    46 C3P         -3.3190    27.6650    32.5840 C.3          1 ACO270   0.0000
    47 C2P         -1.9610    28.4000    32.6330 C.3          1 ACO270   0.0000
    48 S1P         -2.1200    30.0490    33.3090 S.3          1 ACO270   0.0000
    49 C           -2.8120    30.9800    32.0600 C.2          1 ACO270   0.0000
    50 O           -2.9640    30.5500    30.9390 O.2          1 ACO270   0.0000
    51 CH3         -3.1100    32.3670    32.3930 C.3          1 ACO270   0.0000
    52 H2A        -10.6085    27.3384    29.5073 H            1 ACO270   0.0000
    53 H6A1        -7.8335    28.1540    33.8805 H            1 ACO270   0.0000
    54 H6A2        -9.2847    29.0148    33.4894 H            1 ACO270   0.0000
    55 H8A         -5.3072    24.6016    31.7810 H            1 ACO270   0.0000
    56 H1B         -7.0161    24.4792    28.4970 H            1 ACO270   0.0000
    57 H2B         -4.6667    23.8017    30.0017 H            1 ACO270   0.0000
    58 H7          -3.4963    25.1015    28.7717 H            1 ACO270   0.0000
    59 H3B         -4.2069    22.1688    28.4957 H            1 ACO270   0.0000
    60 H4B         -6.7153    21.3945    28.1769 H            1 ACO270   0.0000
    61 H5B1        -5.2102    20.1406    29.4925 H            1 ACO270   0.0000
    62 H5B2        -6.5628    20.4046    30.3686 H            1 ACO270   0.0000
    63 HCP1        -7.3205    19.9416    35.2401 H            1 ACO270   0.0000
    64 HCP2        -6.8549    20.8816    33.9886 H            1 ACO270   0.0000
    65 HDP1        -8.0150    23.2236    36.3378 H            1 ACO270   0.0000
    66 HDP2        -8.1629    22.6860    34.8030 H            1 ACO270   0.0000
    67 HDP3        -8.6626    21.7531    36.0466 H            1 ACO270   0.0000
    68 HEP1        -6.2097    22.0896    37.8672 H            1 ACO270   0.0000
    69 HEP2        -6.9270    20.6556    37.5575 H            1 ACO270   0.0000
    70 HEP3        -5.3413    20.8636    37.2273 H            1 ACO270   0.0000
    71 HAP         -4.6486    22.3971    35.4689 H            1 ACO270   0.0000
    72 H21         -4.8555    22.8676    33.4585 H            1 ACO270   0.0000
    73 H8P         -6.4122    24.9796    34.5355 H            1 ACO270   0.0000
    74 H7P1        -6.3891    26.2627    37.0932 H            1 ACO270   0.0000
    75 H7P2        -6.9309    26.9204    35.7002 H            1 ACO270   0.0000
    76 H6P1        -4.1055    26.7483    36.3250 H            1 ACO270   0.0000
    77 H6P2        -4.9918    28.0856    36.6298 H            1 ACO270   0.0000
    78 H4P         -3.1311    26.5575    34.3755 H            1 ACO270   0.0000
    79 H3P1        -4.0172    28.2794    32.2164 H            1 ACO270   0.0000
    80 H3P2        -3.2408    26.8597    31.9964 H            1 ACO270   0.0000
    81 H2P1        -1.5947    28.4649    31.7048 H            1 ACO270   0.0000
    82 H2P2        -1.3298    27.8756    33.2045 H            1 ACO270   0.0000
    83 HH31        -3.5101    32.8222    31.5976 H            1 ACO270   0.0000
    84 HH32        -3.7580    32.3952    33.1541 H            1 ACO270   0.0000
    85 HH33        -2.2664    32.8353    32.6558 H            1 ACO270   0.0000
@<TRIPOS>BOND
     1    1    2      ar
     2    1    6      ar
     3    2    3      ar
     4    3    4      ar
     5    4    5      ar
     6    4   10       1
     7    5    6      ar
     8    5    8       1
     9    6    7       1
    10    8    9       2
    11    9   10       1
    12   10   11       1
    13   11   12       1
    14   11   21       1
    15   12   13       1
    16   12   14       1
    17   14   15       1
    18   14   20       1
    19   15   16       1
    20   16   17      ar
    21   16   18      ar
    22   16   19      ar
    23   20   21       1
    24   20   22       1
    25   22   23       1
    26   23   24       1
    27   24   25      ar
    28   24   26      ar
    29   24   27       1
    30   27   28       1
    31   28   29      ar
    32   28   30      ar
    33   28   31       1
    34   31   33       1
    35   32   33       1
    36   32   34       1
    37   32   35       1
    38   32   36       1
    39   36   37       1
    40   36   38       1
    41   38   39       2
    42   38   40      am
    43   40   41       1
    44   41   42       1
    45   42   43       1
    46   43   44       2
    47   43   45      am
    48   45   46       1
    49   46   47       1
    50   47   48       1
    51   48   49       1
    52   49   50       2
    53   49   51       1
    54    2   52       1
    55    7   53       1
    56    7   54       1
    57    9   55       1
    58   11   56       1
    59   12   57       1
    60   13   58       1
    61   14   59       1
    62   51   85       1
    63   51   84       1
    64   20   60       1
    65   22   61       1
    66   22   62       1
    67   51   83       1
    68   47   82       1
    69   33   63       1
    70   33   64       1
    71   34   65       1
    72   34   66       1
    73   34   67       1
    74   35   68       1
    75   35   69       1
    76   35   70       1
    77   36   71       1
    78   37   72       1
    79   40   73       1
    80   41   74       1
    81   41   75       1
    82   42   76       1
    83   42   77       1
    84   45   78       1
    85   46   79       1
    86   46   80       1
    87   47   81       1
@<TRIPOS>SUBSTRUCTURE
     1 ACO270      1 GROUP             4 A     ACO     0 **** ACO A 270
