@<TRIPOS>MOLECULE
4or0_NPS_6_ligand
   30    31     1     0     0
SMALL
NO_CHARGES


@<TRIPOS>ATOM
     1 C1          72.0810    28.7190    86.7290 C.ar         1 NPS603   0.0000
     2 O2          72.9380    29.7780    86.4810 O.3          1 NPS603   0.0000
     3 C2          71.1690    28.2880    85.7210 C.ar         1 NPS603   0.0000
     4 C14         68.7140    23.6900    89.1270 C.3          1 NPS603   0.0000
     5 C3          70.2970    27.2030    85.9500 C.ar         1 NPS603   0.0000
     6 C4          70.3210    26.5550    87.1860 C.ar         1 NPS603   0.0000
     7 C5          71.2250    27.0090    88.1650 C.ar         1 NPS603   0.0000
     8 C6          72.1300    28.0800    87.9750 C.ar         1 NPS603   0.0000
     9 C7          69.4210    25.4860    87.4390 C.ar         1 NPS603   0.0000
    10 C8          69.5140    24.8630    88.7040 C.ar         1 NPS603   0.0000
    11 C10         68.9510    23.4890    90.5950 C.3          1 NPS603   0.0000
    12 C13         71.2690    26.3700    89.4040 C.ar         1 NPS603   0.0000
    13 C11         70.4270    25.2970    89.6620 C.ar         1 NPS603   0.0000
    14 C12         73.8780    29.7090    85.4580 C.3          1 NPS603   0.0000
    15 O           70.5110    22.2810    88.3820 O.co2        1 NPS603   0.0000
    16 OXT         68.5420    21.6170    87.9090 O.co2        1 NPS603  -1.0000
    17 C15         69.2760    22.4800    88.4420 C.2          1 NPS603   0.0000
    18 H1          71.1473    28.7611    84.8403 H            1 NPS603   0.0000
    19 H2          67.7427    23.8123    88.9229 H            1 NPS603   0.0000
    20 H3          69.6678    26.9011    85.2338 H            1 NPS603   0.0000
    21 H4          72.7687    28.3648    88.6898 H            1 NPS603   0.0000
    22 H5          68.7542    25.1887    86.7556 H            1 NPS603   0.0000
    23 H6          68.4231    22.7015    90.9131 H            1 NPS603   0.0000
    24 H7          69.9242    23.3250    90.7561 H            1 NPS603   0.0000
    25 H8          68.6636    24.3065    91.0941 H            1 NPS603   0.0000
    26 H9          71.9072    26.6849    90.1065 H            1 NPS603   0.0000
    27 H10         70.4765    24.8306    90.5452 H            1 NPS603   0.0000
    28 H11         74.4028    30.5598    85.4296 H            1 NPS603   0.0000
    29 H12         74.4966    28.9412    85.6249 H            1 NPS603   0.0000
    30 H13         73.4104    29.5764    84.5841 H            1 NPS603   0.0000
@<TRIPOS>BOND
     1    1    2       1
     2    1    3      ar
     3    1    8      ar
     4    2   14       1
     5    3    5      ar
     6    4   10       1
     7    4   11       1
     8    4   17       1
     9    5    6      ar
    10    6    7      ar
    11    6    9      ar
    12    7    8      ar
    13    7   12      ar
    14    9   10      ar
    15   10   13      ar
    16   12   13      ar
    17   15   17      ar
    18   16   17      ar
    19    3   18       1
    20    4   19       1
    21    5   20       1
    22    8   21       1
    23    9   22       1
    24   11   23       1
    25   11   24       1
    26   11   25       1
    27   12   26       1
    28   13   27       1
    29   14   28       1
    30   14   29       1
    31   14   30       1
@<TRIPOS>SUBSTRUCTURE
     1 NPS603      1 GROUP             4 B     NPS     0 **** NPS B 603
