@<TRIPOS>MOLECULE
1ndz_FR5_1_ligand
   67    71     1     0     0
SMALL
NO_CHARGES


@<TRIPOS>ATOM
     1 C1          51.2620    54.3940    21.0460 C.2          1 FR51001   0.0000
     2 N2          51.2380    55.3230    22.0730 N.pl3        1 FR51001   0.0000
     3 C3          51.1550    54.5960    23.2290 C.2          1 FR51001   0.0000
     4 N4          51.0260    53.3560    23.0160 N.2          1 FR51001   1.0000
     5 C5          51.0190    53.2330    21.6000 C.2          1 FR51001   0.0000
     6 C8          50.8310    51.9830    20.8660 C.2          1 FR51001   0.0000
     7 O9          50.5770    51.9510    19.6320 O.2          1 FR51001   0.0000
     8 N10         50.8470    50.9090    21.6410 N.am         1 FR51001   0.0000
     9 C13         51.1410    56.8020    21.8880 C.3          1 FR51001   0.0000
    10 C14         52.5180    57.6040    21.7930 C.3          1 FR51001   0.0000
    11 O15         53.6000    57.3210    22.6900 O.3          1 FR51001   0.0000
    12 C18         50.3710    57.1940    20.6290 C.3          1 FR51001   0.0000
    13 C19         48.8920    56.6160    20.6120 C.3          1 FR51001   0.0000
    14 N22         48.2320    56.7680    19.2010 N.pl3        1 FR51001   0.0000
    15 C27         47.7640    57.9340    18.6950 C.2          1 FR51001   0.0000
    16 C28         47.2130    57.6920    17.5170 C.2          1 FR51001   0.0000
    17 C29         47.3370    56.2520    17.3280 C.ar         1 FR51001   0.0000
    18 C30         48.0670    55.7380    18.3780 C.ar         1 FR51001   0.0000
    19 C31         47.1210    55.4740    16.2610 C.ar         1 FR51001   0.0000
    20 C32         47.4630    54.2100    16.3080 C.ar         1 FR51001   0.0000
    21 C33         48.1200    53.7120    17.3910 C.ar         1 FR51001   0.0000
    22 C34         48.3740    54.4780    18.4590 C.ar         1 FR51001   0.0000
    23 N1          48.4400    52.4840    17.5570 N.am         1 FR51001   0.0000
    24 C2          48.2950    51.5180    16.7830 C.2          1 FR51001   0.0000
    25 O1          47.6070    51.5150    15.7840 O.2          1 FR51001   0.0000
    26 C4          49.1440    50.2820    17.1240 C.3          1 FR51001   0.0000
    27 C6          48.5860    48.9020    16.6980 C.3          1 FR51001   0.0000
    28 C9          44.6010    47.6190    21.1320 C.ar         1 FR51001   0.0000
    29 C15         45.8280    48.2110    20.7930 C.ar         1 FR51001   0.0000
    30 C10         46.2660    48.3270    19.4890 C.ar         1 FR51001   0.0000
    31 C16         45.6270    47.6310    18.4380 C.ar         1 FR51001   0.0000
    32 C11         44.4090    47.0580    18.7170 C.ar         1 FR51001   0.0000
    33 C17         43.9350    46.9960    20.0780 C.ar         1 FR51001   0.0000
    34 N11         47.4050    48.8850    18.9480 N.2          1 FR51001   0.0000
    35 C12         47.4170    48.5800    17.6420 C.2          1 FR51001   0.0000
    36 N13         46.3460    47.8930    17.2600 N.pl3        1 FR51001   0.0000
    37 C7          46.0040    47.4390    15.9250 C.3          1 FR51001   0.0000
    38 H1          51.4309    54.5738    20.0769 H            1 FR51001   0.0000
    39 H2          51.1923    55.0008    24.1426 H            1 FR51001   0.0000
    40 H3          50.7271    50.0010    21.2396 H            1 FR51001   0.0000
    41 H4          50.9790    51.0062    22.6275 H            1 FR51001   0.0000
    42 H5          50.6372    57.1674    22.6708 H            1 FR51001   0.0000
    43 H6          52.2931    58.5707    21.9147 H            1 FR51001   0.0000
    44 H7          52.8694    57.4574    20.8683 H            1 FR51001   0.0000
    45 H8          53.3027    57.4798    23.6315 H            1 FR51001   0.0000
    46 H9          50.8613    56.8425    19.8314 H            1 FR51001   0.0000
    47 H10         50.3254    58.1917    20.5792 H            1 FR51001   0.0000
    48 H11         48.3415    57.1124    21.2832 H            1 FR51001   0.0000
    49 H12         48.9194    55.6464    20.8550 H            1 FR51001   0.0000
    50 H13         47.8249    58.8285    19.1380 H            1 FR51001   0.0000
    51 H14         46.8005    58.3540    16.8913 H            1 FR51001   0.0000
    52 H15         46.7027    55.8535    15.4358 H            1 FR51001   0.0000
    53 H16         47.2396    53.6067    15.5424 H            1 FR51001   0.0000
    54 H17         48.7841    54.0954    19.2869 H            1 FR51001   0.0000
    55 H18         48.8683    52.2684    18.4346 H            1 FR51001   0.0000
    56 H19         49.2650    50.2644    18.1165 H            1 FR51001   0.0000
    57 H20         50.0336    50.3965    16.6818 H            1 FR51001   0.0000
    58 H21         49.2969    48.2036    16.7808 H            1 FR51001   0.0000
    59 H22         48.2636    48.9389    15.7521 H            1 FR51001   0.0000
    60 H23         44.2321    47.6426    22.0612 H            1 FR51001   0.0000
    61 H24         46.4089    48.5633    21.5267 H            1 FR51001   0.0000
    62 H25         43.8512    46.6839    17.9761 H            1 FR51001   0.0000
    63 H26         43.0967    46.4867    20.2727 H            1 FR51001   0.0000
    64 H27         46.6880    47.7700    15.2749 H            1 FR51001   0.0000
    65 H28         45.9841    46.4393    15.9078 H            1 FR51001   0.0000
    66 H29         45.1042    47.7947    15.6722 H            1 FR51001   0.0000
    67 H30         50.9466    52.6246    23.6933 H            1 FR51001   0.0000
@<TRIPOS>BOND
     1    1    2       1
     2    1    5       2
     3    2    3       1
     4    2    9       1
     5    3    4       2
     6    4    5       1
     7    5    6       1
     8    6    7       2
     9    6    8      am
    10    9   10       1
    11    9   12       1
    12   10   11       1
    13   12   13       1
    14   13   14       1
    15   14   15       1
    16   14   18       1
    17   15   16       2
    18   16   17       1
    19   17   18      ar
    20   17   19      ar
    21   18   22      ar
    22   19   20      ar
    23   20   21      ar
    24   21   22      ar
    25   21   23       1
    26   23   24      am
    27   24   25       2
    28   24   26       1
    29   26   27       1
    30   27   35       1
    31   28   29      ar
    32   28   33      ar
    33   29   30      ar
    34   30   31      ar
    35   30   34       1
    36   31   32      ar
    37   31   36       1
    38   32   33      ar
    39   34   35       2
    40   35   36       1
    41   36   37       1
    42    1   38       1
    43    3   39       1
    44    8   40       1
    45    8   41       1
    46    9   42       1
    47   10   43       1
    48   10   44       1
    49   11   45       1
    50   12   46       1
    51   12   47       1
    52   13   48       1
    53   13   49       1
    54   15   50       1
    55   16   51       1
    56   19   52       1
    57   20   53       1
    58   22   54       1
    59   23   55       1
    60   26   56       1
    61   26   57       1
    62   27   58       1
    63   27   59       1
    64   28   60       1
    65   29   61       1
    66   32   62       1
    67   33   63       1
    68   37   64       1
    69   37   65       1
    70   37   66       1
    71    4   67       1
@<TRIPOS>SUBSTRUCTURE
     1 FR51001     1 GROUP             4 A     FR5     0 **** FR5 A1001
