@<TRIPOS>MOLECULE
4w5j_AP5_2_ligand
   81    86     1     0     0
SMALL
NO_CHARGES


@<TRIPOS>ATOM
     1 PA          39.4980    12.2990     2.2650 P.3          1 AP5302   0.0000
     2 O1A         39.9540    13.5970     1.7240 O.co2        1 AP5302   0.0000
     3 O2A         38.7020    11.4570     1.3450 O.co2        1 AP5302  -1.0000
     4 O3A         40.7210    11.4790     2.7890 O.3          1 AP5302   0.0000
     5 PB          42.1830    11.1230     2.2820 P.3          1 AP5302   0.0000
     6 O1B         43.1920    11.8100     3.1420 O.co2        1 AP5302   0.0000
     7 O2B         42.3220    11.4130     0.8190 O.co2        1 AP5302  -1.0000
     8 O3B         42.1390     9.5940     2.6710 O.3          1 AP5302   0.0000
     9 PG          42.3680     8.3070     1.7530 P.3          1 AP5302   0.0000
    10 O1G         41.8020     7.0720     2.4360 O.co2        1 AP5302   0.0000
    11 O2G         41.7470     8.5390     0.3760 O.co2        1 AP5302  -1.0000
    12 O3G         43.9270     8.3500     1.6340 O.3          1 AP5302   0.0000
    13 PD          44.9190     7.1120     1.6630 P.3          1 AP5302   0.0000
    14 O1D         46.3160     7.6630     1.4470 O.co2        1 AP5302   0.0000
    15 O2D         44.8150     6.3320     2.9700 O.co2        1 AP5302  -1.0000
    16 O3D         44.4270     6.1230     0.5210 O.3          1 AP5302   0.0000
    17 PE          44.8780     6.0270    -1.0020 P.3          1 AP5302   0.0000
    18 O1E         43.5810     6.0770    -1.7860 O.co2        1 AP5302   0.0000
    19 O2E         45.8530     7.0580    -1.4480 O.co2        1 AP5302  -1.0000
    20 O5F         38.6430    12.5560     3.5900 O.3          1 AP5302   0.0000
    21 C5F         38.3500    11.3880     4.4290 C.3          1 AP5302   0.0000
    22 C4F         36.9820    11.5740     5.0860 C.3          1 AP5302   0.0000
    23 O4F         37.0180    12.5250     6.0000 O.3          1 AP5302   0.0000
    24 C3F         35.9230    12.0010     4.0500 C.3          1 AP5302   0.0000
    25 O3F         34.7180    11.4710     4.3580 O.3          1 AP5302   0.0000
    26 C2F         35.9410    13.5420     4.2030 C.3          1 AP5302   0.0000
    27 O2F         34.6530    14.0620     3.7110 O.3          1 AP5302   0.0000
    28 C1F         36.1470    13.7560     5.4780 C.3          1 AP5302   0.0000
    29 N9A         36.9010    14.9370     5.7920 N.pl3        1 AP5302   0.0000
    30 C8A         37.9140    15.4620     5.0590 C.2          1 AP5302   0.0000
    31 N7A         38.3830    16.5780     5.6900 N.2          1 AP5302   0.0000
    32 C5A         37.6520    16.7240     6.8290 C.ar         1 AP5302   0.0000
    33 C6A         37.6960    17.6630     7.8480 C.ar         1 AP5302   0.0000
    34 N6A         38.5600    18.7960     7.9580 N.pl3        1 AP5302   0.0000
    35 N1A         36.8400    17.5610     8.8730 N.ar         1 AP5302   0.0000
    36 C2A         35.9410    16.5500     8.9340 C.ar         1 AP5302   0.0000
    37 N3A         35.8910    15.6260     7.9440 N.ar         1 AP5302   0.0000
    38 C4A         36.7600    15.7200     6.8950 C.ar         1 AP5302   0.0000
    39 O5J         45.5250     4.5700    -1.1650 O.3          1 AP5302   0.0000
    40 C5J         44.7190     3.4340    -0.8340 C.3          1 AP5302   0.0000
    41 C4J         45.3930     2.1180    -1.2980 C.3          1 AP5302   0.0000
    42 O4J         46.1190     2.2900    -2.3590 O.3          1 AP5302   0.0000
    43 C3J         46.3340     1.5370    -0.2260 C.3          1 AP5302   0.0000
    44 O3J         46.0140     0.2320    -0.0400 O.3          1 AP5302   0.0000
    45 C2J         47.7500     1.5230    -0.8310 C.3          1 AP5302   0.0000
    46 O2J         48.2280     0.1220    -0.7310 O.3          1 AP5302   0.0000
    47 C1J         47.6250     1.8330    -2.0770 C.3          1 AP5302   0.0000
    48 N9B         48.4530     2.9550    -2.3850 N.pl3        1 AP5302   0.0000
    49 C8B         48.1140     4.2240    -2.6780 C.2          1 AP5302   0.0000
    50 N7B         49.2620     4.9120    -2.9020 N.2          1 AP5302   0.0000
    51 C5B         50.3160     4.0470    -2.7460 C.ar         1 AP5302   0.0000
    52 C6B         51.6970     4.2580    -2.8670 C.ar         1 AP5302   0.0000
    53 N6B         52.5730     5.3980    -3.1830 N.pl3        1 AP5302   0.0000
    54 N1B         52.5410     3.2350    -2.6620 N.ar         1 AP5302   0.0000
    55 C2B         52.0520     1.9930    -2.3310 C.ar         1 AP5302   0.0000
    56 N3B         50.6890     1.7880    -2.2130 N.ar         1 AP5302   0.0000
    57 C4B         49.8290     2.8350    -2.4250 C.ar         1 AP5302   0.0000
    58 H5F1        39.0516    11.2991     5.1360 H            1 AP5302   0.0000
    59 H5F2        38.3404    10.5634     3.8634 H            1 AP5302   0.0000
    60 H4F         36.7001    10.7148     5.5130 H            1 AP5302   0.0000
    61 H3F         36.2021    11.7336     3.1277 H            1 AP5302   0.0000
    62 H5          34.0440    11.7575     3.6771 H            1 AP5302   0.0000
    63 H2F         36.6915    13.9287     3.6671 H            1 AP5302   0.0000
    64 H7          34.1857    14.5480     4.4495 H            1 AP5302   0.0000
    65 H1F         35.2717    13.7775     5.9611 H            1 AP5302   0.0000
    66 H8A         38.2608    15.0921     4.1971 H            1 AP5302   0.0000
    67 H6A1        38.4911    19.4023     8.7503 H            1 AP5302   0.0000
    68 H6A2        39.2335    18.9825     7.2427 H            1 AP5302   0.0000
    69 H2A         35.3137    16.4853     9.7101 H            1 AP5302   0.0000
    70 H5J1        43.8301     3.5220    -1.2836 H            1 AP5302   0.0000
    71 H5J2        44.5896     3.4029     0.1571 H            1 AP5302   0.0000
    72 H4J         44.6811     1.4455    -1.5004 H            1 AP5302   0.0000
    73 H3J         46.2963     2.0572     0.6272 H            1 AP5302   0.0000
    74 H17         46.8070    -0.3392    -0.2521 H            1 AP5302   0.0000
    75 H2J         48.3605     2.1552    -0.3538 H            1 AP5302   0.0000
    76 H19         48.7002    -0.0077     0.1409 H            1 AP5302   0.0000
    77 H1J         47.8661     1.0536    -2.6553 H            1 AP5302   0.0000
    78 H8B         47.1855     4.5927    -2.7225 H            1 AP5302   0.0000
    79 H6B1        53.5652     5.2752    -3.2047 H            1 AP5302   0.0000
    80 H6B2        52.1759     6.2953    -3.3760 H            1 AP5302   0.0000
    81 H2B         52.6847     1.2345    -2.1749 H            1 AP5302   0.0000
@<TRIPOS>BOND
     1    1    2      ar
     2    1    3      ar
     3    1    4       1
     4    1   20       1
     5    4    5       1
     6    5    6      ar
     7    5    7      ar
     8    5    8       1
     9    8    9       1
    10    9   10      ar
    11    9   11      ar
    12    9   12       1
    13   12   13       1
    14   13   14      ar
    15   13   15      ar
    16   13   16       1
    17   16   17       1
    18   17   18      ar
    19   17   19      ar
    20   17   39       1
    21   20   21       1
    22   21   22       1
    23   22   23       1
    24   22   24       1
    25   23   28       1
    26   24   25       1
    27   24   26       1
    28   26   27       1
    29   26   28       1
    30   28   29       1
    31   29   30       1
    32   29   38       1
    33   30   31       2
    34   31   32       1
    35   32   33      ar
    36   32   38      ar
    37   33   34       1
    38   33   35      ar
    39   35   36      ar
    40   36   37      ar
    41   37   38      ar
    42   39   40       1
    43   40   41       1
    44   41   42       1
    45   41   43       1
    46   42   47       1
    47   43   44       1
    48   43   45       1
    49   45   46       1
    50   45   47       1
    51   47   48       1
    52   48   49       1
    53   48   57       1
    54   49   50       2
    55   50   51       1
    56   51   52      ar
    57   51   57      ar
    58   52   53       1
    59   52   54      ar
    60   54   55      ar
    61   55   56      ar
    62   56   57      ar
    63   55   81       1
    64   53   80       1
    65   53   79       1
    66   49   78       1
    67   47   77       1
    68   21   58       1
    69   21   59       1
    70   22   60       1
    71   24   61       1
    72   25   62       1
    73   26   63       1
    74   27   64       1
    75   28   65       1
    76   30   66       1
    77   34   67       1
    78   34   68       1
    79   36   69       1
    80   40   70       1
    81   40   71       1
    82   41   72       1
    83   43   73       1
    84   44   74       1
    85   45   75       1
    86   46   76       1
@<TRIPOS>SUBSTRUCTURE
     1 AP5302      1 GROUP             4 B     AP5     0 **** AP5 B 302
