@<TRIPOS>MOLECULE
4jf1_PLP_2_ligand
   26    26     1     0     0
SMALL
NO_CHARGES


@<TRIPOS>ATOM
     1 N1          62.2900    40.4930    18.5680 N.ar         1 PLP501   1.0000
     2 C2          62.1000    39.6160    17.5680 C.ar         1 PLP501   0.0000
     3 C2A         62.0800    40.0990    16.1560 C.3          1 PLP501   0.0000
     4 C3          61.9310    38.1710    17.8730 C.ar         1 PLP501   0.0000
     5 O3          61.7300    37.2690    16.8630 O.3          1 PLP501   0.0000
     6 C4          61.9670    37.7780    19.3030 C.ar         1 PLP501   0.0000
     7 C4A         61.7910    36.3760    19.7380 C.3          1 PLP501   0.0000
     8 C5          62.1690    38.8540    20.3010 C.ar         1 PLP501   0.0000
     9 C6          62.3230    40.1590    19.8650 C.ar         1 PLP501   0.0000
    10 C5A         62.2050    38.5400    21.7820 C.3          1 PLP501   0.0000
    11 O4P         63.4400    37.9320    22.1460 O.3          1 PLP501   0.0000
    12 P           63.5170    36.9080    23.3920 P.3          1 PLP501   0.0000
    13 O1P         62.3960    35.9360    23.1310 O.co2        1 PLP501   0.0000
    14 O2P         64.9140    36.3370    23.2990 O.co2        1 PLP501  -1.0000
    15 O3P         63.3010    37.7130    24.6350 O.co2        1 PLP501  -1.0000
    16 H2A1        61.9293    39.3250    15.5410 H            1 PLP501   0.0000
    17 H2A2        61.3421    40.7642    16.0417 H            1 PLP501   0.0000
    18 H2A3        62.9552    40.5315    15.9392 H            1 PLP501   0.0000
    19 H4          61.6170    36.2982    17.0747 H            1 PLP501   0.0000
    20 H4A1        61.8488    36.3266    20.7351 H            1 PLP501   0.0000
    21 H4A2        60.8963    36.0441    19.4392 H            1 PLP501   0.0000
    22 H4A3        62.5088    35.8090    19.3340 H            1 PLP501   0.0000
    23 H8          62.4642    40.8795    20.5439 H            1 PLP501   0.0000
    24 H5A1        61.4558    37.9152    22.0019 H            1 PLP501   0.0000
    25 H5A2        62.0938    39.3888    22.2988 H            1 PLP501   0.0000
    26 H11         62.4147    41.4560    18.3290 H            1 PLP501   0.0000
@<TRIPOS>BOND
     1    1    2      ar
     2    1    9      ar
     3    2    3       1
     4    2    4      ar
     5    4    5       1
     6    4    6      ar
     7    6    7       1
     8    6    8      ar
     9    8    9      ar
    10    8   10       1
    11   10   11       1
    12   11   12       1
    13   12   13      ar
    14   12   14      ar
    15   12   15      ar
    16    3   16       1
    17    3   17       1
    18    3   18       1
    19    5   19       1
    20    7   20       1
    21    7   21       1
    22    7   22       1
    23    9   23       1
    24   10   24       1
    25   10   25       1
    26    1   26       1
@<TRIPOS>SUBSTRUCTURE
     1 PLP501      1 GROUP             4 B     PLP     0 **** PLP B 501
