@<TRIPOS>MOLECULE
3aiv_HBO_1_ligand
   24    25     1     0     0
SMALL
NO_CHARGES


@<TRIPOS>ATOM
     1 O1A        -56.9880    -2.0030    -4.9590 O.3          1 HBO900   0.0000
     2 C3B        -57.5120    -0.5450    -2.9180 C.2          1 HBO900   0.0000
     3 N3B        -56.6890    -0.8870    -1.6750 N.am         1 HBO900   0.0000
     4 C4B        -55.2890    -1.4620    -1.8220 C.ar         1 HBO900   0.0000
     5 C1B        -54.5440    -1.1920    -3.1080 C.ar         1 HBO900   0.0000
     6 O1B        -55.1660    -0.3940    -4.1140 O.3          1 HBO900   0.0000
     7 C2B        -56.7330    -0.6430    -4.3310 C.3          1 HBO900   0.0000
     8 C5B        -54.7030    -2.3400    -0.7800 C.ar         1 HBO900   0.0000
     9 C6B        -53.3920    -2.8800    -1.0720 C.ar         1 HBO900   0.0000
    10 C8B        -53.2780    -1.7500    -3.3280 C.ar         1 HBO900   0.0000
    11 O3B        -58.7230    -0.2020    -2.9000 O.2          1 HBO900   0.0000
    12 OHB        -57.2540    -0.8730    -0.4900 O.3          1 HBO900   0.0000
    13 C7B        -52.7220    -2.5690    -2.3380 C.ar         1 HBO900   0.0000
    14 O7B        -51.4510    -3.0540    -2.6110 O.3          1 HBO900   0.0000
    15 C9B        -51.0460    -3.9490    -1.3160 C.3          1 HBO900   0.0000
    16 H1A        -56.1989    -2.2674    -5.5135 H            1 HBO900   0.0000
    17 H2B        -57.0882     0.0640    -4.9425 H            1 HBO900   0.0000
    18 H5B        -55.1841    -2.5463     0.0721 H            1 HBO900   0.0000
    19 H6B        -52.9394    -3.4706    -0.4039 H            1 HBO900   0.0000
    20 H8B        -52.7809    -1.5668    -4.1761 H            1 HBO900   0.0000
    21 HHB        -57.6089     0.0426    -0.3007 H            1 HBO900   0.0000
    22 H9B1       -50.1318    -4.3321    -1.4483 H            1 HBO900   0.0000
    23 H9B2       -51.0510    -3.3734    -0.4983 H            1 HBO900   0.0000
    24 H9B3       -51.7060    -4.6920    -1.2047 H            1 HBO900   0.0000
@<TRIPOS>BOND
     1    1    7       1
     2    2    3      am
     3    2    7       1
     4    2   11       2
     5    3    4       1
     6    3   12       1
     7    4    5      ar
     8    4    8      ar
     9    5    6       1
    10    5   10      ar
    11    6    7       1
    12    8    9      ar
    13    9   13      ar
    14   10   13      ar
    15   13   14       1
    16   14   15       1
    17    1   16       1
    18    7   17       1
    19    8   18       1
    20    9   19       1
    21   10   20       1
    22   12   21       1
    23   15   22       1
    24   15   23       1
    25   15   24       1
@<TRIPOS>SUBSTRUCTURE
     1 HBO900      1 GROUP             4 A     HBO     0 **** HBO A 900
