@<TRIPOS>MOLECULE
3qcz_ANP_1_ligand
   44    46     1     0     0
SMALL
NO_CHARGES


@<TRIPOS>ATOM
     1 PG           6.0290    26.7360    18.4700 P.3          1 ANP501   0.0000
     2 O1G          4.7910    26.3400    17.5990 O.co2        1 ANP501   0.0000
     3 O2G          6.5640    28.1720    18.4460 O.co2        1 ANP501  -1.0000
     4 O3G          7.1760    25.7740    18.2100 O.co2        1 ANP501  -1.0000
     5 PB           4.7910    25.2270    20.6610 P.3          1 ANP501   0.0000
     6 O1B          3.7330    24.7730    19.6030 O.co2        1 ANP501   0.0000
     7 O2B          4.2100    25.6520    22.0840 O.co2        1 ANP501  -1.0000
     8 N3B          5.6490    26.5430    20.0990 N.3          1 ANP501   0.0000
     9 PA           6.5600    22.9340    20.3060 P.3          1 ANP501   0.0000
    10 O1A          5.9700    21.6590    20.7750 O.co2        1 ANP501   0.0000
    11 O2A          6.5280    23.2640    18.8210 O.co2        1 ANP501  -1.0000
    12 O3A          5.9020    24.1820    21.1750 O.3          1 ANP501   0.0000
    13 O5'          8.0370    22.9710    20.8240 O.3          1 ANP501   0.0000
    14 C5'          8.8870    24.0180    20.3570 C.3          1 ANP501   0.0000
    15 C4'         10.2080    24.1590    21.0750 C.3          1 ANP501   0.0000
    16 O4'         10.0550    24.1700    22.5130 O.3          1 ANP501   0.0000
    17 C3'         11.2070    23.0380    20.7420 C.3          1 ANP501   0.0000
    18 O3'         12.5330    23.6050    20.9690 O.3          1 ANP501   0.0000
    19 C2'         10.9070    22.1530    21.8690 C.3          1 ANP501   0.0000
    20 O2'         11.9540    21.2750    22.1350 O.3          1 ANP501   0.0000
    21 C1'         10.7180    23.1030    23.1130 C.3          1 ANP501   0.0000
    22 N9           9.8940    22.4410    24.1260 N.pl3        1 ANP501   0.0000
    23 C8           8.7120    21.9010    23.8770 C.2          1 ANP501   0.0000
    24 N7           8.1480    21.4120    24.9990 N.2          1 ANP501   0.0000
    25 C5           9.1010    21.6650    25.9860 C.ar         1 ANP501   0.0000
    26 C6           9.1440    21.3660    27.3250 C.ar         1 ANP501   0.0000
    27 N6           8.1170    20.7480    27.9540 N.pl3        1 ANP501   0.0000
    28 N1          10.1850    21.7550    28.0360 N.ar         1 ANP501   0.0000
    29 C2          11.2140    22.3580    27.4550 C.ar         1 ANP501   0.0000
    30 N3          11.2470    22.6830    26.1680 N.ar         1 ANP501   0.0000
    31 C4          10.1690    22.2850    25.4120 C.ar         1 ANP501   0.0000
    32 H3B          5.1225    27.3519    20.3606 H            1 ANP501   0.0000
    33 H5'1         8.3917    24.8814    20.4527 H            1 ANP501   0.0000
    34 H5'2         9.0793    23.8494    19.3903 H            1 ANP501   0.0000
    35 H4'         10.6174    25.0293    20.8010 H            1 ANP501   0.0000
    36 H3'         11.0808    22.6222    19.8413 H            1 ANP501   0.0000
    37 H6          13.0573    23.5779    20.1179 H            1 ANP501   0.0000
    38 H2'         10.0650    21.6430    21.6929 H            1 ANP501   0.0000
    39 H8          11.7102    20.6902    22.9086 H            1 ANP501   0.0000
    40 H1'         11.5992    23.3880    23.4903 H            1 ANP501   0.0000
    41 H10          8.2906    21.8608    22.9710 H            1 ANP501   0.0000
    42 H11          8.1792    20.5439    28.9310 H            1 ANP501   0.0000
    43 H12          7.2961    20.4956    27.4417 H            1 ANP501   0.0000
    44 H13         12.0098    22.5804    28.0182 H            1 ANP501   0.0000
@<TRIPOS>BOND
     1    1    2      ar
     2    1    3      ar
     3    1    4      ar
     4    1    8       1
     5    5    6      ar
     6    5    7      ar
     7    5    8       1
     8    5   12       1
     9    9   10      ar
    10    9   11      ar
    11    9   12       1
    12    9   13       1
    13   13   14       1
    14   14   15       1
    15   15   16       1
    16   15   17       1
    17   16   21       1
    18   17   18       1
    19   17   19       1
    20   19   20       1
    21   19   21       1
    22   21   22       1
    23   22   23       1
    24   22   31       1
    25   23   24       2
    26   24   25       1
    27   25   26      ar
    28   25   31      ar
    29   26   27       1
    30   26   28      ar
    31   28   29      ar
    32   29   30      ar
    33   30   31      ar
    34   29   44       1
    35   27   43       1
    36   27   42       1
    37    8   32       1
    38   23   41       1
    39   14   33       1
    40   14   34       1
    41   15   35       1
    42   17   36       1
    43   18   37       1
    44   19   38       1
    45   20   39       1
    46   21   40       1
@<TRIPOS>SUBSTRUCTURE
     1 ANP501      1 GROUP             4 A     ANP     0 **** ANP A 501
