@<TRIPOS>MOLECULE
4flp_JQ1_2_ligand
   56    59     1     0     0
SMALL
NO_CHARGES


@<TRIPOS>ATOM
     1 CAA         11.7200     2.7060   -54.1260 C.3          1 JQ1201   0.0000
     2 CAB          9.1440     5.7620   -49.3940 C.3          1 JQ1201   0.0000
     3 CAC         11.4690     7.7380   -49.5280 C.3          1 JQ1201   0.0000
     4 CAD         12.9300    12.8410   -53.8890 C.3          1 JQ1201   0.0000
     5 CAE         10.6350    11.8050   -54.0790 C.3          1 JQ1201   0.0000
     6 CAF         11.8720    11.7160   -51.9320 C.3          1 JQ1201   0.0000
     7 OAG         13.7000    10.8420   -55.7390 O.2          1 JQ1201   0.0000
     8 CLAH        17.6620     8.2220   -48.4630 Cl           1 JQ1201   0.0000
     9 CAI         15.4000     6.9850   -49.2860 C.ar         1 JQ1201   0.0000
    10 CAJ         16.1180     8.8360   -50.6160 C.ar         1 JQ1201   0.0000
    11 CAK         14.3210     6.7910   -50.1340 C.ar         1 JQ1201   0.0000
    12 CAL         15.0220     8.6410   -51.4620 C.ar         1 JQ1201   0.0000
    13 CAM         12.7160     8.6540   -55.6360 C.3          1 JQ1201   0.0000
    14 NAN         13.1660     7.9080   -53.3520 N.2          1 JQ1201   0.0000
    15 NAO         12.4530     4.3980   -55.8670 N.2          1 JQ1201   0.0000
    16 NAP         12.5830     5.6360   -55.9780 N.2          1 JQ1201   0.0000
    17 OAQ         12.6310    10.3960   -53.7790 O.3          1 JQ1201   0.0000
    18 SAR         10.0620     4.9050   -51.9810 S.3          1 JQ1201   0.0000
    19 CAS         13.0210    10.0630   -55.0720 C.2          1 JQ1201   0.0000
    20 CAT         13.0150     7.4180   -52.1150 C.2          1 JQ1201   0.0000
    21 CAU         16.3050     8.0040   -49.5230 C.ar         1 JQ1201   0.0000
    22 CAV         11.9940     4.1300   -54.6270 C.2          1 JQ1201   0.0000
    23 CAW         14.0970     7.6210   -51.2310 C.ar         1 JQ1201   0.0000
    24 CAX         10.0960     5.8620   -50.5730 C.2          1 JQ1201   0.0000
    25 CAY         11.1600     6.7400   -50.6430 C.2          1 JQ1201   0.0000
    26 CAZ         12.2210     6.2230   -54.8260 C.2          1 JQ1201   0.0000
    27 CBA         11.9060     6.6010   -51.8260 C.2          1 JQ1201   0.0000
    28 CBB         11.4210     5.5890   -52.7050 C.2          1 JQ1201   0.0000
    29 CBC         12.2370     7.7420   -54.4940 C.3          1 JQ1201   0.0000
    30 NBD         11.8660     5.2830   -53.9520 N.pl3        1 JQ1201   0.0000
    31 CBE         12.0200    11.6870   -53.4430 C.3          1 JQ1201   0.0000
    32 HAA1        11.3873     2.7424   -53.1837 H            1 JQ1201   0.0000
    33 HAA2        11.0293     2.2754   -54.7069 H            1 JQ1201   0.0000
    34 HAA3        12.5648     2.1720   -54.1609 H            1 JQ1201   0.0000
    35 HAB1         9.3930     6.4434   -48.7058 H            1 JQ1201   0.0000
    36 HAB2         8.2087     5.9294   -49.7057 H            1 JQ1201   0.0000
    37 HAB3         9.2034     4.8473   -48.9942 H            1 JQ1201   0.0000
    38 HAC1        12.2750     8.2756   -49.7758 H            1 JQ1201   0.0000
    39 HAC2        10.6872     8.3485   -49.4010 H            1 JQ1201   0.0000
    40 HAC3        11.6470     7.2430   -48.6775 H            1 JQ1201   0.0000
    41 HAD1        13.8282    12.7419   -53.4607 H            1 JQ1201   0.0000
    42 HAD2        13.0309    12.8206   -54.8837 H            1 JQ1201   0.0000
    43 HAD3        12.5234    13.7119   -53.6130 H            1 JQ1201   0.0000
    44 HAE1        10.0622    11.0441   -53.7740 H            1 JQ1201   0.0000
    45 HAE2        10.2146    12.6697   -53.8042 H            1 JQ1201   0.0000
    46 HAE3        10.7221    11.7784   -55.0748 H            1 JQ1201   0.0000
    47 HAF1        11.2796    10.9649   -51.6406 H            1 JQ1201   0.0000
    48 HAF2        12.7715    11.6152   -51.5070 H            1 JQ1201   0.0000
    49 HAF3        11.4674    12.5870   -51.6534 H            1 JQ1201   0.0000
    50 HAI         15.5252     6.3837   -48.4968 H            1 JQ1201   0.0000
    51 HAJ         16.7664     9.5749   -50.7992 H            1 JQ1201   0.0000
    52 HAK         13.6883     6.0377   -49.9545 H            1 JQ1201   0.0000
    53 HAL         14.8980     9.2450   -52.2493 H            1 JQ1201   0.0000
    54 HAM1        13.5447     8.2710   -56.0441 H            1 JQ1201   0.0000
    55 HAM2        12.0015     8.7205   -56.3325 H            1 JQ1201   0.0000
    56 HBC         11.3199     8.0247   -54.2129 H            1 JQ1201   0.0000
@<TRIPOS>BOND
     1    1   22       1
     2    2   24       1
     3    3   25       1
     4    4   31       1
     5    5   31       1
     6    6   31       1
     7    7   19       2
     8    8   21       1
     9    9   11      ar
    10    9   21      ar
    11   10   12      ar
    12   10   21      ar
    13   11   23      ar
    14   12   23      ar
    15   13   19       1
    16   13   29       1
    17   14   20       2
    18   14   29       1
    19   15   16       1
    20   15   22       2
    21   16   26       2
    22   17   19       1
    23   17   31       1
    24   18   24       1
    25   18   28       1
    26   20   23       1
    27   20   27       1
    28   22   30       1
    29   24   25       2
    30   25   27       1
    31   26   29       1
    32   26   30       1
    33   27   28       2
    34   28   30       1
    35    1   32       1
    36    1   33       1
    37    1   34       1
    38    2   35       1
    39    2   36       1
    40    2   37       1
    41    3   38       1
    42    3   39       1
    43    3   40       1
    44    4   41       1
    45    4   42       1
    46    4   43       1
    47    5   44       1
    48    5   45       1
    49    5   46       1
    50    6   47       1
    51    6   48       1
    52    6   49       1
    53    9   50       1
    54   10   51       1
    55   11   52       1
    56   12   53       1
    57   13   54       1
    58   13   55       1
    59   29   56       1
@<TRIPOS>SUBSTRUCTURE
     1 JQ1201      1 GROUP             4 B     JQ1     0 **** JQ1 B 201
