@<TRIPOS>MOLECULE
3l04_CP_2_ligand
   10     9     1     0     0
SMALL
NO_CHARGES


@<TRIPOS>ATOM
     1 N          106.5450    46.3450    87.0750 N.am         1 CP346    0.0000
     2 C          105.8730    45.2050    87.2160 C.2          1 CP346    0.0000
     3 O          104.8020    44.9970    86.6560 O.2          1 CP346    0.0000
     4 O4P        106.4760    44.2370    88.0810 O.3          1 CP346    0.0000
     5 P          106.0300    42.6670    88.0880 P.3          1 CP346    0.0000
     6 O1P        106.6200    41.9570    86.7960 O.co2        1 CP346    0.0000
     7 O2P        104.4360    42.5460    88.0980 O.co2        1 CP346   -1.0000
     8 O3P        106.6830    42.0010    89.4080 O.co2        1 CP346   -1.0000
     9 H1         107.4156    46.4742    87.5497 H            1 CP346    0.0000
    10 H2         106.1793    47.0724    86.4944 H            1 CP346    0.0000
@<TRIPOS>BOND
     1    1    2      am
     2    2    3       2
     3    2    4       1
     4    4    5       1
     5    5    6      ar
     6    5    7      ar
     7    5    8      ar
     8    1    9       1
     9    1   10       1
@<TRIPOS>SUBSTRUCTURE
     1 CP346       1 GROUP             4 A      CP     0 ****  CP A 346
