@<TRIPOS>MOLECULE
3o26_NDP_1_ligand
   77    81     1     0     0
SMALL
NO_CHARGES


@<TRIPOS>ATOM
     1 PA          18.2760    72.3470    -2.8970 P.3          1 NDP312   0.0000
     2 O1A         19.0260    72.4980    -1.6490 O.co2        1 NDP312   0.0000
     3 O2A         16.6720    72.2010    -2.6140 O.co2        1 NDP312  -1.0000
     4 O5B         18.5730    73.6190    -3.8810 O.3          1 NDP312   0.0000
     5 C5B         17.7880    73.7420    -5.0370 C.3          1 NDP312   0.0000
     6 C4B         18.2820    75.0070    -5.7410 C.3          1 NDP312   0.0000
     7 O4B         17.5510    75.1150    -6.9980 O.3          1 NDP312   0.0000
     8 C3B         17.9010    76.2200    -4.8870 C.3          1 NDP312   0.0000
     9 O3B         18.8340    77.2510    -5.1260 O.3          1 NDP312   0.0000
    10 C2B         16.5570    76.5860    -5.4430 C.3          1 NDP312   0.0000
    11 O2B         16.2660    77.9370    -5.2330 O.3          1 NDP312   0.0000
    12 C1B         16.8810    76.3930    -6.9130 C.3          1 NDP312   0.0000
    13 N9A         15.6640    76.3800    -7.6880 N.pl3        1 NDP312   0.0000
    14 C8A         14.4100    75.6180    -7.4840 C.2          1 NDP312   0.0000
    15 N7A         13.4820    76.0430    -8.5400 N.2          1 NDP312   0.0000
    16 C5A         14.1580    77.0600    -9.3530 C.ar         1 NDP312   0.0000
    17 C6A         13.7280    77.8970   -10.4890 C.ar         1 NDP312   0.0000
    18 N6A         12.3810    77.8120   -10.9690 N.pl3        1 NDP312   0.0000
    19 N1A         14.6760    78.8230   -11.0850 N.ar         1 NDP312   0.0000
    20 C2A         16.0540    78.9550   -10.5830 C.ar         1 NDP312   0.0000
    21 N3A         16.4500    78.1870    -9.3810 N.ar         1 NDP312   0.0000
    22 C4A         15.5130    77.2550    -8.8140 C.ar         1 NDP312   0.0000
    23 O3          18.5650    70.9930    -3.7370 O.3          1 NDP312   0.0000
    24 PN          20.0260    70.3880    -4.1440 P.3          1 NDP312   0.0000
    25 O1N         21.1110    71.3460    -3.9080 O.co2        1 NDP312   0.0000
    26 O2N         20.1140    68.9850    -3.3240 O.co2        1 NDP312  -1.0000
    27 O5D         19.8600    70.0310    -5.7580 O.3          1 NDP312   0.0000
    28 C5D         20.5740    70.7160    -6.7640 C.3          1 NDP312   0.0000
    29 C4D         20.5990    69.7850    -7.9890 C.3          1 NDP312   0.0000
    30 O4D         21.1830    68.5130    -7.5670 O.3          1 NDP312   0.0000
    31 C3D         19.1670    69.4490    -8.4180 C.3          1 NDP312   0.0000
    32 O3D         19.0810    69.4120    -9.8110 O.3          1 NDP312   0.0000
    33 C2D         18.9280    68.0710    -7.8730 C.3          1 NDP312   0.0000
    34 O2D         17.9730    67.3440    -8.6000 O.3          1 NDP312   0.0000
    35 C1D         20.3150    67.4740    -8.0960 C.3          1 NDP312   0.0000
    36 N1N         20.5140    66.2760    -7.3040 N.4          1 NDP312   1.0000
    37 C2N         20.3890    66.3470    -5.8300 C.3          1 NDP312   0.0000
    38 C3N         20.6210    65.0990    -4.9940 C.2          1 NDP312   0.0000
    39 C7N         20.4980    65.1760    -3.4840 C.2          1 NDP312   0.0000
    40 O7N         20.5580    64.1800    -2.8480 O.2          1 NDP312   0.0000
    41 N7N         20.4130    66.4770    -2.8420 N.am         1 NDP312   0.0000
    42 C4N         20.9700    63.8120    -5.6430 C.2          1 NDP312   0.0000
    43 C5N         21.1020    63.7500    -7.1260 C.3          1 NDP312   0.0000
    44 C6N         20.8670    64.9950    -7.9620 C.3          1 NDP312   0.0000
    45 P2B         15.3160    78.3410    -3.9480 P.3          1 NDP312   0.0000
    46 O1X         14.2580    77.3390    -3.7610 O.co2        1 NDP312   0.0000
    47 O2X         16.2790    78.4380    -2.6240 O.co2        1 NDP312  -1.0000
    48 O3X         14.6380    79.7690    -4.3560 O.co2        1 NDP312  -1.0000
    49 H5B1        16.8221    73.8327    -4.7944 H            1 NDP312   0.0000
    50 H5B2        17.9099    72.9443    -5.6276 H            1 NDP312   0.0000
    51 H4B         19.2689    74.9712    -5.8985 H            1 NDP312   0.0000
    52 H3B         17.8484    75.9867    -3.9160 H            1 NDP312   0.0000
    53 H5          18.5965    78.0501    -4.5737 H            1 NDP312   0.0000
    54 H2B         15.8285    75.9794    -5.1246 H            1 NDP312   0.0000
    55 H1B         17.4862    77.1223    -7.2321 H            1 NDP312   0.0000
    56 H8A         14.2303    74.9449    -6.7666 H            1 NDP312   0.0000
    57 H6A1        12.0879    78.3787   -11.7390 H            1 NDP312   0.0000
    58 H6A2        11.7338    77.1859   -10.5341 H            1 NDP312   0.0000
    59 H2A         16.7097    79.5520   -11.0452 H            1 NDP312   0.0000
    60 H5D1        21.5060    70.9084    -6.4567 H            1 NDP312   0.0000
    61 H5D2        20.1140    71.5744    -6.9912 H            1 NDP312   0.0000
    62 H4D         21.1176    70.1901    -8.7419 H            1 NDP312   0.0000
    63 H3D         18.5151    70.1039    -8.0357 H            1 NDP312   0.0000
    64 H16         19.7484    70.0452   -10.2031 H            1 NDP312   0.0000
    65 H2D         18.6980    68.1005    -6.9003 H            1 NDP312   0.0000
    66 H18         17.0994    67.8304    -8.5822 H            1 NDP312   0.0000
    67 H1D         20.4913    67.3066    -9.0660 H            1 NDP312   0.0000
    68 H2N1        19.4600    66.6599    -5.6324 H            1 NDP312   0.0000
    69 H2N2        21.0456    67.0327    -5.5159 H            1 NDP312   0.0000
    70 H7N1        20.3317    66.5393    -1.8473 H            1 NDP312   0.0000
    71 H7N2        20.4358    67.3099    -3.3950 H            1 NDP312   0.0000
    72 H4N         21.1157    62.9919    -5.0896 H            1 NDP312   0.0000
    73 H5N1        20.4512    63.0610    -7.4451 H            1 NDP312   0.0000
    74 H5N2        22.0339    63.4436    -7.3202 H            1 NDP312   0.0000
    75 H6N1        21.7074    65.1582    -8.4787 H            1 NDP312   0.0000
    76 H6N2        20.1228    64.7812    -8.5948 H            1 NDP312   0.0000
    77 H1N         19.5418    66.0554    -7.3821 H            1 NDP312   0.0000
@<TRIPOS>BOND
     1    1    2      ar
     2    1    3      ar
     3    1    4       1
     4    1   23       1
     5    4    5       1
     6    5    6       1
     7    6    7       1
     8    6    8       1
     9    7   12       1
    10    8    9       1
    11    8   10       1
    12   10   11       1
    13   10   12       1
    14   11   45       1
    15   12   13       1
    16   13   14       1
    17   13   22       1
    18   14   15       2
    19   15   16       1
    20   16   17      ar
    21   16   22      ar
    22   17   18       1
    23   17   19      ar
    24   19   20      ar
    25   20   21      ar
    26   21   22      ar
    27   23   24       1
    28   24   25      ar
    29   24   26      ar
    30   24   27       1
    31   27   28       1
    32   28   29       1
    33   29   30       1
    34   29   31       1
    35   30   35       1
    36   31   32       1
    37   31   33       1
    38   33   34       1
    39   33   35       1
    40   35   36       1
    41   36   37       1
    42   36   44       1
    43   37   38       1
    44   38   39       1
    45   38   42       2
    46   39   40       2
    47   39   41      am
    48   42   43       1
    49   43   44       1
    50   45   46      ar
    51   45   47      ar
    52   45   48      ar
    53   44   76       1
    54    5   49       1
    55    5   50       1
    56    6   51       1
    57    8   52       1
    58    9   53       1
    59   10   54       1
    60   12   55       1
    61   14   56       1
    62   18   57       1
    63   18   58       1
    64   20   59       1
    65   36   77       1
    66   28   60       1
    67   28   61       1
    68   29   62       1
    69   31   63       1
    70   32   64       1
    71   33   65       1
    72   34   66       1
    73   35   67       1
    74   37   68       1
    75   37   69       1
    76   41   70       1
    77   41   71       1
    78   42   72       1
    79   43   73       1
    80   43   74       1
    81   44   75       1
@<TRIPOS>SUBSTRUCTURE
     1 NDP312      1 GROUP             4 A     NDP     0 **** NDP A 312
