@<TRIPOS>MOLECULE
2bh2_SAH_1_ligand
   46    48     1     0     0
SMALL
NO_CHARGES


@<TRIPOS>ATOM
     1 N           75.7890    -5.0940    12.8560 N.4          1 SAH500   1.0000
     2 CA          74.6840    -4.1950    13.1940 C.3          1 SAH500   0.0000
     3 CB          74.5230    -4.2560    14.7100 C.3          1 SAH500   0.0000
     4 CG          75.7130    -3.9810    15.6300 C.3          1 SAH500   0.0000
     5 SD          75.1590    -3.7400    17.3590 S.3          1 SAH500   0.0000
     6 C           74.9520    -2.7690    12.7540 C.2          1 SAH500   0.0000
     7 O           76.0550    -2.5050    12.1920 O.co2        1 SAH500   0.0000
     8 OXT         74.1030    -1.8790    12.8880 O.co2        1 SAH500  -1.0000
     9 C5'         75.4000    -5.3810    18.0740 C.3          1 SAH500   0.0000
    10 C4'         74.1670    -6.2660    17.8690 C.3          1 SAH500   0.0000
    11 O4'         74.2900    -7.5380    18.5400 O.3          1 SAH500   0.0000
    12 C3'         72.8490    -5.6010    18.3720 C.3          1 SAH500   0.0000
    13 O3'         71.9370    -5.4350    17.2930 O.3          1 SAH500   0.0000
    14 C2'         72.3830    -6.5900    19.4560 C.3          1 SAH500   0.0000
    15 O2'         71.0160    -6.7770    19.6190 O.3          1 SAH500   0.0000
    16 C1'         73.0040    -7.8820    19.0330 C.3          1 SAH500   0.0000
    17 N9          73.1520    -8.7670    20.1600 N.pl3        1 SAH500   0.0000
    18 C8          73.8000    -8.5400    21.3310 C.2          1 SAH500   0.0000
    19 N7          73.7630    -9.6450    22.0790 N.2          1 SAH500   0.0000
    20 C5          73.1170   -10.6270    21.3740 C.ar         1 SAH500   0.0000
    21 C6          72.7740   -11.9500    21.6370 C.ar         1 SAH500   0.0000
    22 N6          73.0380   -12.5910    22.7820 N.pl3        1 SAH500   0.0000
    23 N1          72.1040   -12.6520    20.6580 N.ar         1 SAH500   0.0000
    24 C2          71.7570   -12.0920    19.4420 C.ar         1 SAH500   0.0000
    25 N3          72.0510   -10.7430    19.2170 N.ar         1 SAH500   0.0000
    26 C4          72.7210   -10.0520    20.1570 C.ar         1 SAH500   0.0000
    27 H1          75.6430    -5.4726    11.9420 H            1 SAH500   0.0000
    28 H2          76.6497    -4.5851    12.8724 H            1 SAH500   0.0000
    29 HA          73.8456    -4.5233    12.7589 H            1 SAH500   0.0000
    30 HB1         74.2006    -5.1775    14.9267 H            1 SAH500   0.0000
    31 HB2         73.8161    -3.5906    14.9498 H            1 SAH500   0.0000
    32 HG1         76.1837    -3.1554    15.3188 H            1 SAH500   0.0000
    33 HG2         76.3421    -4.7575    15.5928 H            1 SAH500   0.0000
    34 H5'1        75.5734    -5.2866    19.0543 H            1 SAH500   0.0000
    35 H5'2        76.1879    -5.8142    17.6363 H            1 SAH500   0.0000
    36 H4'         74.0710    -6.4410    16.8891 H            1 SAH500   0.0000
    37 H3'         73.0520    -4.7135    18.7856 H            1 SAH500   0.0000
    38 H12         71.7219    -6.3281    16.8979 H            1 SAH500   0.0000
    39 H2'         72.7771    -6.3154    20.3331 H            1 SAH500   0.0000
    40 H14         70.6224    -7.1198    18.7660 H            1 SAH500   0.0000
    41 H1'         72.4580    -8.3154    18.3161 H            1 SAH500   0.0000
    42 H16         74.2369    -7.6793    21.5925 H            1 SAH500   0.0000
    43 H17         72.7593   -13.5445    22.8970 H            1 SAH500   0.0000
    44 H18         73.5139   -12.1164    23.5224 H            1 SAH500   0.0000
    45 H19         71.3052   -12.6401    18.7381 H            1 SAH500   0.0000
    46 H20         75.8290    -5.8383    13.5227 H            1 SAH500   0.0000
@<TRIPOS>BOND
     1    1    2       1
     2    2    3       1
     3    2    6       1
     4    3    4       1
     5    4    5       1
     6    5    9       1
     7    6    7      ar
     8    6    8      ar
     9    9   10       1
    10   10   11       1
    11   10   12       1
    12   11   16       1
    13   12   13       1
    14   12   14       1
    15   14   15       1
    16   14   16       1
    17   16   17       1
    18   17   18       1
    19   17   26       1
    20   18   19       2
    21   19   20       1
    22   20   21      ar
    23   20   26      ar
    24   21   22       1
    25   21   23      ar
    26   23   24      ar
    27   24   25      ar
    28   25   26      ar
    29    1   27       1
    30    1   28       1
    31    2   29       1
    32    3   30       1
    33    3   31       1
    34    4   32       1
    35    4   33       1
    36    1   46       1
    37    9   34       1
    38    9   35       1
    39   10   36       1
    40   12   37       1
    41   13   38       1
    42   14   39       1
    43   15   40       1
    44   16   41       1
    45   18   42       1
    46   22   43       1
    47   22   44       1
    48   24   45       1
@<TRIPOS>SUBSTRUCTURE
     1 SAH500      1 GROUP             4 A     SAH     0 **** SAH A 500
