@<TRIPOS>MOLECULE
3ow3_SMY_1_ligand
   57    61     1     0     0
SMALL
NO_CHARGES


@<TRIPOS>ATOM
     1 N1          11.1820    34.7530    36.8670 N.ar         1 SMY351   0.0000
     2 C2          12.5280    34.7370    37.0060 C.ar         1 SMY351   0.0000
     3 N3          13.3080    33.6550    36.9970 N.ar         1 SMY351   0.0000
     4 C4          12.6840    32.4930    36.7520 C.ar         1 SMY351   0.0000
     5 C5          11.2740    32.4060    36.6120 C.ar         1 SMY351   0.0000
     6 C6          10.5370    33.6060    36.6420 C.ar         1 SMY351   0.0000
     7 C7          13.4410    31.2100    36.6910 C.3          1 SMY351   0.0000
     8 S8          12.0440    30.0140    36.5100 S.3          1 SMY351   0.0000
     9 C9          10.5960    31.0650    36.3230 C.3          1 SMY351   0.0000
    10 C10          9.5300    30.4410    37.3110 C.3          1 SMY351   0.0000
    11 N11          9.1770    33.6140    36.4220 N.pl3        1 SMY351   0.0000
    12 C12          8.2040    33.9320    37.4140 C.3          1 SMY351   0.0000
    13 C13          7.0290    34.5900    36.7170 C.3          1 SMY351   0.0000
    14 N14          6.3570    33.8360    35.6400 N.am         1 SMY351   0.0000
    15 C15          7.2220    32.9550    34.8370 C.3          1 SMY351   0.0000
    16 C16          8.6780    32.8090    35.2940 C.3          1 SMY351   0.0000
    17 C17          5.0120    34.0590    35.3900 C.2          1 SMY351   0.0000
    18 O18          4.3660    34.8540    36.0780 O.2          1 SMY351   0.0000
    19 C19          4.1210    33.4490    34.2950 C.3          1 SMY351   0.0000
    20 C20          3.0950    32.4720    34.9260 C.3          1 SMY351   0.0000
    21 C21          3.5140    31.1160    35.5470 C.2          1 SMY351   0.0000
    22 C22          2.7250    30.3540    36.3700 C.2          1 SMY351   0.0000
    23 N23          3.3040    29.1480    36.7880 N.pl3        1 SMY351   0.0000
    24 C24          4.5380    29.1270    36.2120 C.ar         1 SMY351   0.0000
    25 C25          4.7210    30.2770    35.4630 C.ar         1 SMY351   0.0000
    26 C26          5.5740    28.1660    36.2820 C.ar         1 SMY351   0.0000
    27 C27          6.8150    28.3140    35.6180 C.ar         1 SMY351   0.0000
    28 C28          6.9990    29.4830    34.8510 C.ar         1 SMY351   0.0000
    29 C29          5.9530    30.4420    34.7800 C.ar         1 SMY351   0.0000
    30 N30          3.5340    34.6350    33.5480 N.4          1 SMY351   1.0000
    31 H1          12.9809    35.6203    37.1270 H            1 SMY351   0.0000
    32 H2          13.9618    31.0471    37.5290 H            1 SMY351   0.0000
    33 H3          14.0577    31.1809    35.9043 H            1 SMY351   0.0000
    34 H4          10.2608    31.0367    35.3813 H            1 SMY351   0.0000
    35 H5           9.2074    29.5680    36.9452 H            1 SMY351   0.0000
    36 H6           9.9515    30.2922    38.2055 H            1 SMY351   0.0000
    37 H7           8.7571    31.0683    37.4069 H            1 SMY351   0.0000
    38 H8           8.5961    34.5602    38.0860 H            1 SMY351   0.0000
    39 H9           7.9023    33.0972    37.8745 H            1 SMY351   0.0000
    40 H10          7.3591    35.4465    36.3202 H            1 SMY351   0.0000
    41 H11          6.3415    34.7893    37.4153 H            1 SMY351   0.0000
    42 H12          7.2328    33.3119    33.9029 H            1 SMY351   0.0000
    43 H13          6.8113    32.0432    34.8407 H            1 SMY351   0.0000
    44 H14          8.8080    31.8494    35.5436 H            1 SMY351   0.0000
    45 H15          9.2521    33.0290    34.5053 H            1 SMY351   0.0000
    46 H16          4.7020    32.9341    33.6647 H            1 SMY351   0.0000
    47 H17          2.4365    32.2562    34.2050 H            1 SMY351   0.0000
    48 H18          2.6369    32.9818    35.6542 H            1 SMY351   0.0000
    49 H19          1.8077    30.6369    36.6502 H            1 SMY351   0.0000
    50 H20          2.8984    28.4527    37.3814 H            1 SMY351   0.0000
    51 H21          5.4219    27.3417    36.8274 H            1 SMY351   0.0000
    52 H22          7.5308    27.6194    35.6896 H            1 SMY351   0.0000
    53 H23          7.8576    29.6356    34.3616 H            1 SMY351   0.0000
    54 H24          6.0907    31.2642    34.2277 H            1 SMY351   0.0000
    55 H25          2.9386    34.3058    32.8151 H            1 SMY351   0.0000
    56 H26          3.0030    35.1981    34.1812 H            1 SMY351   0.0000
    57 H27          4.2741    35.1816    33.1561 H            1 SMY351   0.0000
@<TRIPOS>BOND
     1    1    2      ar
     2    1    6      ar
     3    2    3      ar
     4    3    4      ar
     5    4    5      ar
     6    4    7       1
     7    5    6      ar
     8    5    9       1
     9    6   11       1
    10    7    8       1
    11    8    9       1
    12    9   10       1
    13   11   12       1
    14   11   16       1
    15   12   13       1
    16   13   14       1
    17   14   15       1
    18   14   17      am
    19   15   16       1
    20   17   18       2
    21   17   19       1
    22   19   20       1
    23   19   30       1
    24   20   21       1
    25   21   22       2
    26   21   25       1
    27   22   23       1
    28   23   24       1
    29   24   25      ar
    30   24   26      ar
    31   25   29      ar
    32   26   27      ar
    33   27   28      ar
    34   28   29      ar
    35    2   31       1
    36    7   32       1
    37    7   33       1
    38    9   34       1
    39   10   35       1
    40   10   36       1
    41   10   37       1
    42   12   38       1
    43   12   39       1
    44   13   40       1
    45   13   41       1
    46   15   42       1
    47   15   43       1
    48   16   44       1
    49   16   45       1
    50   19   46       1
    51   20   47       1
    52   20   48       1
    53   22   49       1
    54   23   50       1
    55   26   51       1
    56   27   52       1
    57   28   53       1
    58   29   54       1
    59   30   55       1
    60   30   56       1
    61   30   57       1
@<TRIPOS>SUBSTRUCTURE
     1 SMY351      1 GROUP             4 A     SMY     0 **** SMY A 351
