@<TRIPOS>MOLECULE
2kmn_BB2_1_ligand
   61    61     1     0     0
SMALL
NO_CHARGES


@<TRIPOS>ATOM
     1 C5         253.3790     5.2700     4.5610 C.3          1 BB2149   0.0000
     2 C3         252.5650     4.4810     5.5740 C.2          1 BB2149   0.0000
     3 O4         252.9320     4.4010     6.7500 O.2          1 BB2149   0.0000
     4 N1         251.4730     3.8820     5.1240 N.am         1 BB2149   0.0000
     5 O2         250.7410     3.1010     6.0130 O.3          1 BB2149  -1.0000
     6 C6         252.6740     6.5380     3.9980 C.3          1 BB2149   0.0000
     7 C12        252.9610     7.7730     4.8310 C.2          1 BB2149   0.0000
     8 O13        252.1620     8.7160     4.8390 O.2          1 BB2149   0.0000
     9 C7         251.1570     6.4120     3.8090 C.3          1 BB2149   0.0000
    10 C8         250.7180     6.7250     2.3860 C.3          1 BB2149   0.0000
    11 C9         249.3420     7.3610     2.3450 C.3          1 BB2149   0.0000
    12 C10        248.2480     6.3710     2.7130 C.3          1 BB2149   0.0000
    13 C11        246.8610     6.9450     2.5230 C.3          1 BB2149   0.0000
    14 N14        254.2370     7.9410     5.1440 N.am         1 BB2149   0.0000
    15 C15        254.6430     9.0590     5.9660 C.3          1 BB2149   0.0000
    16 C16        254.5870     8.6970     7.4700 C.3          1 BB2149   0.0000
    17 C18        254.7960     9.9290     8.3450 C.3          1 BB2149   0.0000
    18 C17        253.2610     8.0410     7.8010 C.3          1 BB2149   0.0000
    19 C19        256.0510     9.5450     5.6130 C.2          1 BB2149   0.0000
    20 O20        257.0000     8.9390     6.1170 O.2          1 BB2149   0.0000
    21 N21        256.2260    10.0960     4.3850 N.am         1 BB2149   0.0000
    22 C22        255.2110     9.9800     3.3150 C.3          1 BB2149   0.0000
    23 C23        256.8610    11.4250     4.2770 C.3          1 BB2149   0.0000
    24 C24        256.6210    11.8200     2.8560 C.3          1 BB2149   0.0000
    25 C25        255.2680    11.3120     2.5640 C.3          1 BB2149   0.0000
    26 C26        255.7230     8.8290     2.4450 C.3          1 BB2149   0.0000
    27 O27        257.0840     9.0380     2.0840 O.3          1 BB2149   0.0000
    28 H1         253.5897     4.6651     3.7931 H            1 BB2149   0.0000
    29 H2         254.2292     5.5574     5.0020 H            1 BB2149   0.0000
    30 H3         251.1829     3.9879     4.1729 H            1 BB2149   0.0000
    31 H4         253.0636     6.7053     3.0923 H            1 BB2149   0.0000
    32 H5         250.7024     7.0486     4.4320 H            1 BB2149   0.0000
    33 H6         250.8831     5.4761     4.0304 H            1 BB2149   0.0000
    34 H7         250.6969     5.8748     1.8599 H            1 BB2149   0.0000
    35 H8         251.3775     7.3547     1.9755 H            1 BB2149   0.0000
    36 H9         249.1712     7.7026     1.4208 H            1 BB2149   0.0000
    37 H10        249.3189     8.1234     2.9917 H            1 BB2149   0.0000
    38 H11        248.3593     6.1117     3.6724 H            1 BB2149   0.0000
    39 H12        248.3416     5.5600     2.1355 H            1 BB2149   0.0000
    40 H13        246.1788     6.2593     2.7770 H            1 BB2149   0.0000
    41 H14        246.7526     7.7533     3.1017 H            1 BB2149   0.0000
    42 H15        246.7349     7.2017     1.5648 H            1 BB2149   0.0000
    43 H16        254.9216     7.2927     4.8108 H            1 BB2149   0.0000
    44 H17        254.0049     9.8117     5.8038 H            1 BB2149   0.0000
    45 H18        255.3190     8.0441     7.6646 H            1 BB2149   0.0000
    46 H19        254.7547     9.6645     9.3085 H            1 BB2149   0.0000
    47 H20        255.6905    10.3302     8.1476 H            1 BB2149   0.0000
    48 H21        254.0799    10.5999     8.1525 H            1 BB2149   0.0000
    49 H22        253.2362     7.8118     8.7741 H            1 BB2149   0.0000
    50 H23        252.5147     8.6716     7.5880 H            1 BB2149   0.0000
    51 H24        253.1574     7.2068     7.2593 H            1 BB2149   0.0000
    52 H25        254.2992     9.7955     3.6819 H            1 BB2149   0.0000
    53 H26        257.8405    11.3687     4.4706 H            1 BB2149   0.0000
    54 H27        256.4341    12.0759     4.9047 H            1 BB2149   0.0000
    55 H28        257.2966    11.3980     2.2515 H            1 BB2149   0.0000
    56 H29        256.6566    12.8141     2.7532 H            1 BB2149   0.0000
    57 H30        254.5696    11.9425     2.9026 H            1 BB2149   0.0000
    58 H31        255.1436    11.1731     1.5815 H            1 BB2149   0.0000
    59 H32        255.1681     8.7729     1.6150 H            1 BB2149   0.0000
    60 H33        255.6466     7.9725     2.9555 H            1 BB2149   0.0000
    61 H34        257.5439     9.5574     2.8042 H            1 BB2149   0.0000
@<TRIPOS>BOND
     1    1    2       1
     2    1    6       1
     3    2    3       2
     4    2    4      am
     5    4    5       1
     6    6    7       1
     7    6    9       1
     8    7    8       2
     9    7   14      am
    10    9   10       1
    11   10   11       1
    12   11   12       1
    13   12   13       1
    14   14   15       1
    15   15   16       1
    16   15   19       1
    17   16   17       1
    18   16   18       1
    19   19   20       2
    20   19   21      am
    21   21   22       1
    22   21   23       1
    23   22   25       1
    24   22   26       1
    25   23   24       1
    26   24   25       1
    27   26   27       1
    28    1   28       1
    29    1   29       1
    30    4   30       1
    31   27   61       1
    32    6   31       1
    33    9   32       1
    34    9   33       1
    35   10   34       1
    36   10   35       1
    37   11   36       1
    38   11   37       1
    39   12   38       1
    40   12   39       1
    41   13   40       1
    42   13   41       1
    43   13   42       1
    44   14   43       1
    45   15   44       1
    46   16   45       1
    47   17   46       1
    48   17   47       1
    49   17   48       1
    50   18   49       1
    51   18   50       1
    52   18   51       1
    53   22   52       1
    54   23   53       1
    55   23   54       1
    56   24   55       1
    57   24   56       1
    58   25   57       1
    59   25   58       1
    60   26   59       1
    61   26   60       1
@<TRIPOS>SUBSTRUCTURE
     1 BB2149      1 GROUP             4 A     BB2     0 **** BB2 A 149
