@<TRIPOS>MOLECULE
3nf4_FAD_1_ligand
   84    89     1     0     0
SMALL
NO_CHARGES


@<TRIPOS>ATOM
     1 PA          38.2940    62.1840    84.2540 P.3          1 FAD384   0.0000
     2 O1A         39.4330    61.6820    85.0980 O.co2        1 FAD384   0.0000
     3 O2A         37.0060    62.5170    84.9580 O.co2        1 FAD384  -1.0000
     4 O5B         38.7760    63.5100    83.4710 O.3          1 FAD384   0.0000
     5 C5B         37.8990    64.4180    82.8070 C.3          1 FAD384   0.0000
     6 C4B         38.7210    65.5570    82.1850 C.3          1 FAD384   0.0000
     7 O4B         39.5160    66.2570    83.1660 O.3          1 FAD384   0.0000
     8 C3B         39.6850    65.0310    81.1290 C.3          1 FAD384   0.0000
     9 O3B         39.6920    65.9310    80.0230 O.3          1 FAD384   0.0000
    10 C2B         41.0470    65.0660    81.8030 C.3          1 FAD384   0.0000
    11 O2B         42.1270    65.1640    80.8470 O.3          1 FAD384   0.0000
    12 C1B         40.9050    66.2370    82.7940 C.3          1 FAD384   0.0000
    13 N9A         41.8140    65.9950    83.9420 N.pl3        1 FAD384   0.0000
    14 C8A         41.6880    65.0140    84.8830 C.2          1 FAD384   0.0000
    15 N7A         42.7340    65.0900    85.7350 N.2          1 FAD384   0.0000
    16 C5A         43.5110    66.1220    85.3300 C.ar         1 FAD384   0.0000
    17 C6A         44.6940    66.6800    85.8070 C.ar         1 FAD384   0.0000
    18 N6A         45.2930    66.1490    86.9010 N.pl3        1 FAD384   0.0000
    19 N1A         45.2410    67.7550    85.1620 N.ar         1 FAD384   0.0000
    20 C2A         44.6530    68.2800    84.0690 C.ar         1 FAD384   0.0000
    21 N3A         43.5170    67.7460    83.5880 N.ar         1 FAD384   0.0000
    22 C4A         42.9330    66.6820    84.1950 C.ar         1 FAD384   0.0000
    23 N1          39.9570    51.5170    82.1820 N.2          1 FAD384   0.0000
    24 C2          40.5690    50.3820    82.6410 C.2          1 FAD384   0.0000
    25 O2          41.1530    50.3720    83.7560 O.2          1 FAD384   0.0000
    26 N3          40.5580    49.2450    81.8960 N.pl3        1 FAD384   0.0000
    27 C4          39.9470    49.2060    80.6830 C.2          1 FAD384   0.0000
    28 O4          39.9580    48.1310    80.0300 O.2          1 FAD384   0.0000
    29 C4X         39.3180    50.3650    80.1880 C.2          1 FAD384   0.0000
    30 N5          38.6880    50.3470    78.9830 N.2          1 FAD384   0.0000
    31 C5X         38.0610    51.4690    78.5400 C.ar         1 FAD384   0.0000
    32 C6          37.4100    51.4500    77.3050 C.ar         1 FAD384   0.0000
    33 C7          36.7580    52.5860    76.8240 C.ar         1 FAD384   0.0000
    34 C7M         36.0650    52.5210    75.4830 C.3          1 FAD384   0.0000
    35 C8          36.7700    53.7490    77.6030 C.ar         1 FAD384   0.0000
    36 C8M         36.1030    55.0350    77.1870 C.3          1 FAD384   0.0000
    37 C9          37.4260    53.7620    78.8310 C.ar         1 FAD384   0.0000
    38 C9A         38.0770    52.6390    79.3180 C.ar         1 FAD384   0.0000
    39 N10         38.7110    52.6820    80.5200 N.pl3        1 FAD384   0.0000
    40 C10         39.3210    51.5440    80.9740 C.2          1 FAD384   0.0000
    41 C1'         38.7170    53.9290    81.3460 C.3          1 FAD384   0.0000
    42 C2'         39.6250    55.0670    80.8090 C.3          1 FAD384   0.0000
    43 O2'         41.0110    54.7160    80.9970 O.3          1 FAD384   0.0000
    44 C3'         39.2510    56.4570    81.4020 C.3          1 FAD384   0.0000
    45 O3'         37.9530    56.8050    80.9010 O.3          1 FAD384   0.0000
    46 C4'         40.1980    57.6430    81.1060 C.3          1 FAD384   0.0000
    47 O4'         41.5750    57.3000    81.3450 O.3          1 FAD384   0.0000
    48 C5'         39.9010    58.9790    81.8370 C.3          1 FAD384   0.0000
    49 O5'         39.2360    58.9250    83.1240 O.3          1 FAD384   0.0000
    50 P           37.7510    59.5560    83.3170 P.3          1 FAD384   0.0000
    51 O1P         36.8510    59.0090    82.2230 O.co2        1 FAD384   0.0000
    52 O2P         37.2920    59.3960    84.7400 O.co2        1 FAD384  -1.0000
    53 O3P         38.0180    61.1350    83.0430 O.3          1 FAD384   0.0000
    54 H5B1        37.2492    64.7967    83.4661 H            1 FAD384   0.0000
    55 H5B2        37.4005    63.9346    82.0874 H            1 FAD384   0.0000
    56 H4B         38.0953    66.2074    81.7542 H            1 FAD384   0.0000
    57 H3B         39.4429    64.1037    80.8434 H            1 FAD384   0.0000
    58 H5          38.9911    65.6559    79.3649 H            1 FAD384   0.0000
    59 H2B         41.1630    64.2215    82.3258 H            1 FAD384   0.0000
    60 H7          41.8117    65.6592    80.0375 H            1 FAD384   0.0000
    61 H1B         41.1484    67.0956    82.3428 H            1 FAD384   0.0000
    62 H8A         40.9435    64.3482    84.9335 H            1 FAD384   0.0000
    63 H6A1        46.1428    66.5458    87.2479 H            1 FAD384   0.0000
    64 H6A2        44.8851    65.3604    87.3612 H            1 FAD384   0.0000
    65 H2A         45.0635    69.0701    83.6138 H            1 FAD384   0.0000
    66 H13         41.0072    48.4233    82.2467 H            1 FAD384   0.0000
    67 H14         37.4110    50.6124    76.7587 H            1 FAD384   0.0000
    68 H7M1        35.6483    53.4070    75.2799 H            1 FAD384   0.0000
    69 H7M2        36.7327    52.2961    74.7733 H            1 FAD384   0.0000
    70 H7M3        35.3554    51.8168    75.5083 H            1 FAD384   0.0000
    71 H8M1        36.2410    55.7266    77.8960 H            1 FAD384   0.0000
    72 H8M2        36.5019    55.3545    76.3275 H            1 FAD384   0.0000
    73 H8M3        35.1236    54.8771    77.0615 H            1 FAD384   0.0000
    74 H21         37.4276    54.6013    79.3747 H            1 FAD384   0.0000
    75 H1'1        39.0295    53.6905    82.2655 H            1 FAD384   0.0000
    76 H1'2        37.7800    54.2753    81.3918 H            1 FAD384   0.0000
    77 H2'         39.4703    55.1209    79.8225 H            1 FAD384   0.0000
    78 H25         41.5509    55.5477    81.1263 H            1 FAD384   0.0000
    79 H3'         39.1815    56.3593    82.3948 H            1 FAD384   0.0000
    80 H27         37.6831    57.6964    81.2651 H            1 FAD384   0.0000
    81 H4'         40.1186    57.8317    80.1272 H            1 FAD384   0.0000
    82 H29         42.0964    57.4044    80.4981 H            1 FAD384   0.0000
    83 H5'1        39.3264    59.5275    81.2296 H            1 FAD384   0.0000
    84 H5'2        40.7766    59.4418    81.9753 H            1 FAD384   0.0000
@<TRIPOS>BOND
     1    1    2      ar
     2    1    3      ar
     3    1    4       1
     4    1   53       1
     5    4    5       1
     6    5    6       1
     7    6    7       1
     8    6    8       1
     9    7   12       1
    10    8    9       1
    11    8   10       1
    12   10   11       1
    13   10   12       1
    14   12   13       1
    15   13   14       1
    16   13   22       1
    17   14   15       2
    18   15   16       1
    19   16   17      ar
    20   16   22      ar
    21   17   18       1
    22   17   19      ar
    23   19   20      ar
    24   20   21      ar
    25   21   22      ar
    26   23   24       1
    27   23   40       2
    28   24   25       2
    29   24   26       1
    30   26   27       1
    31   27   28       2
    32   27   29       1
    33   29   30       2
    34   29   40       1
    35   30   31       1
    36   31   32      ar
    37   31   38      ar
    38   32   33      ar
    39   33   34       1
    40   33   35      ar
    41   35   36       1
    42   35   37      ar
    43   37   38      ar
    44   38   39       1
    45   39   40       1
    46   39   41       1
    47   41   42       1
    48   42   43       1
    49   42   44       1
    50   44   45       1
    51   44   46       1
    52   46   47       1
    53   46   48       1
    54   48   49       1
    55   49   50       1
    56   50   51      ar
    57   50   52      ar
    58   50   53       1
    59   48   84       1
    60    5   54       1
    61    5   55       1
    62    6   56       1
    63    8   57       1
    64    9   58       1
    65   10   59       1
    66   11   60       1
    67   12   61       1
    68   14   62       1
    69   18   63       1
    70   18   64       1
    71   20   65       1
    72   26   66       1
    73   32   67       1
    74   34   68       1
    75   34   69       1
    76   34   70       1
    77   36   71       1
    78   36   72       1
    79   36   73       1
    80   37   74       1
    81   41   75       1
    82   41   76       1
    83   42   77       1
    84   43   78       1
    85   44   79       1
    86   45   80       1
    87   46   81       1
    88   47   82       1
    89   48   83       1
@<TRIPOS>SUBSTRUCTURE
     1 FAD384      1 GROUP             4 A     FAD     0 **** FAD A 384
