@<TRIPOS>MOLECULE
3orh_SAH_1_ligand
   46    48     1     0     0
SMALL
NO_CHARGES


@<TRIPOS>ATOM
     1 N           71.8520    63.9180    12.7020 N.4          1 SAH4000   1.0000
     2 CA          71.8110    63.8640    11.2090 C.3          1 SAH4000   0.0000
     3 CB          70.3580    63.7620    10.7220 C.3          1 SAH4000   0.0000
     4 CG          69.8030    62.3890    11.0190 C.3          1 SAH4000   0.0000
     5 SD          68.2470    62.0690    10.1460 S.3          1 SAH4000   0.0000
     6 C           72.4850    65.0710    10.5710 C.2          1 SAH4000   0.0000
     7 O           73.0780    65.9040    11.2410 O.co2        1 SAH4000   0.0000
     8 OXT         72.4350    65.2560     9.2710 O.co2        1 SAH4000  -1.0000
     9 C5'         67.7110    60.4700    10.8370 C.3          1 SAH4000   0.0000
    10 C4'         68.3690    59.2870    10.1040 C.3          1 SAH4000   0.0000
    11 O4'         67.9960    58.0120    10.7040 O.3          1 SAH4000   0.0000
    12 C3'         67.9970    59.1430     8.5880 C.3          1 SAH4000   0.0000
    13 O3'         69.1760    58.9830     7.7640 O.3          1 SAH4000   0.0000
    14 C2'         67.0670    57.8910     8.5630 C.3          1 SAH4000   0.0000
    15 O2'         67.0250    57.1620     7.3550 O.3          1 SAH4000   0.0000
    16 C1'         67.7640    57.0200     9.6460 C.3          1 SAH4000   0.0000
    17 N9          66.9200    56.0860    10.4060 N.pl3        1 SAH4000   0.0000
    18 C8          65.6570    56.2730    10.8920 C.2          1 SAH4000   0.0000
    19 N7          65.3050    55.2420    11.6670 N.2          1 SAH4000   0.0000
    20 C5          66.4070    54.4260    11.7960 C.ar         1 SAH4000   0.0000
    21 C6          66.7190    53.1870    12.4690 C.ar         1 SAH4000   0.0000
    22 N6          65.8000    52.5440    13.2810 N.pl3        1 SAH4000   0.0000
    23 N1          67.9400    52.6680    12.3100 N.ar         1 SAH4000   0.0000
    24 C2          68.9020    53.2160    11.5590 C.ar         1 SAH4000   0.0000
    25 N3          68.6100    54.3680    10.9090 N.ar         1 SAH4000   0.0000
    26 C4          67.4230    54.9830    10.9940 C.ar         1 SAH4000   0.0000
    27 H1          72.3793    63.1425    13.0492 H            1 SAH4000   0.0000
    28 H2          72.2838    64.7718    12.9929 H            1 SAH4000   0.0000
    29 HA          72.2977    63.0421    10.9130 H            1 SAH4000   0.0000
    30 HB1         70.3282    63.9240     9.7357 H            1 SAH4000   0.0000
    31 HB2         69.8038    64.4505    11.1898 H            1 SAH4000   0.0000
    32 HG1         69.6405    62.3142    12.0029 H            1 SAH4000   0.0000
    33 HG2         70.4751    61.7035    10.7391 H            1 SAH4000   0.0000
    34 H5'1        66.7178    60.3948    10.7485 H            1 SAH4000   0.0000
    35 H5'2        67.9632    60.4334    11.8040 H            1 SAH4000   0.0000
    36 H4'         69.3614    59.3878    10.1746 H            1 SAH4000   0.0000
    37 H3'         67.4848    59.9483     8.2895 H            1 SAH4000   0.0000
    38 H12         69.6716    58.1619     8.0471 H            1 SAH4000   0.0000
    39 H2'         66.1426    58.1369     8.8546 H            1 SAH4000   0.0000
    40 H14         67.9412    56.8262     7.1363 H            1 SAH4000   0.0000
    41 H1'         68.6096    56.5986     9.3184 H            1 SAH4000   0.0000
    42 H16         65.0797    57.0658    10.6965 H            1 SAH4000   0.0000
    43 H17         66.0462    51.6869    13.7336 H            1 SAH4000   0.0000
    44 H18         64.8901    52.9367    13.4149 H            1 SAH4000   0.0000
    45 H19         69.8036    52.7907    11.4804 H            1 SAH4000   0.0000
    46 H20         70.9203    63.8759    13.0628 H            1 SAH4000   0.0000
@<TRIPOS>BOND
     1    1    2       1
     2    2    3       1
     3    2    6       1
     4    3    4       1
     5    4    5       1
     6    5    9       1
     7    6    7      ar
     8    6    8      ar
     9    9   10       1
    10   10   11       1
    11   10   12       1
    12   11   16       1
    13   12   13       1
    14   12   14       1
    15   14   15       1
    16   14   16       1
    17   16   17       1
    18   17   18       1
    19   17   26       1
    20   18   19       2
    21   19   20       1
    22   20   21      ar
    23   20   26      ar
    24   21   22       1
    25   21   23      ar
    26   23   24      ar
    27   24   25      ar
    28   25   26      ar
    29    1   27       1
    30    1   28       1
    31    2   29       1
    32    3   30       1
    33    3   31       1
    34    4   32       1
    35    4   33       1
    36    1   46       1
    37    9   34       1
    38    9   35       1
    39   10   36       1
    40   12   37       1
    41   13   38       1
    42   14   39       1
    43   15   40       1
    44   16   41       1
    45   18   42       1
    46   22   43       1
    47   22   44       1
    48   24   45       1
@<TRIPOS>SUBSTRUCTURE
     1 SAH4000     1 GROUP             4 A     SAH     0 **** SAH A4000
