@<TRIPOS>MOLECULE
5brp_PNG_3_ligand
   36    37     1     0     0
SMALL
NO_CHARGES


@<TRIPOS>ATOM
     1 C1          73.3070   -61.8030   -59.7790 C.3          1 PNG601   0.0000
     2 C2          72.9390   -63.0810   -59.0470 C.3          1 PNG601   0.0000
     3 C3          73.4410   -64.2970   -59.7640 C.3          1 PNG601   0.0000
     4 C4          72.9550   -64.2930   -61.1770 C.3          1 PNG601   0.0000
     5 C5          73.4180   -63.0480   -61.8520 C.3          1 PNG601   0.0000
     6 C6          72.8160   -62.8670   -63.2130 C.3          1 PNG601   0.0000
     7 C7          75.6690   -61.5760   -60.1790 C.ar         1 PNG601   0.0000
     8 C8          76.5590   -62.5130   -59.6460 C.ar         1 PNG601   0.0000
     9 C9          77.6760   -62.9130   -60.3890 C.ar         1 PNG601   0.0000
    10 C10         77.8990   -62.3740   -61.6520 C.ar         1 PNG601   0.0000
    11 C11         77.0220   -61.4430   -62.2060 C.ar         1 PNG601   0.0000
    12 C12         75.9110   -61.0310   -61.4590 C.ar         1 PNG601   0.0000
    13 N1          79.0550   -62.8030   -62.4080 N.2          1 PNG601   1.0000
    14 O1          74.5280   -61.1970   -59.4050 O.3          1 PNG601   0.0000
    15 O2          73.4020   -63.0520   -57.7520 O.3          1 PNG601   0.0000
    16 O3          73.0010   -65.4330   -59.1160 O.3          1 PNG601   0.0000
    17 O4          73.5080   -65.3760   -61.8270 O.3          1 PNG601   0.0000
    18 O5          73.0840   -61.8940   -61.1590 O.3          1 PNG601   0.0000
    19 O6          73.7850   -62.6420   -64.1760 O.3          1 PNG601   0.0000
    20 O7          79.1580   -62.4030   -63.5660 O.co2        1 PNG601   0.0000
    21 O8          79.9420   -63.6030   -61.8680 O.co2        1 PNG601  -1.0000
    22 H1          72.6160   -61.1487   -59.4718 H            1 PNG601   0.0000
    23 H2          71.9411   -63.1368   -59.0132 H            1 PNG601   0.0000
    24 H3          74.4410   -64.2871   -59.7627 H            1 PNG601   0.0000
    25 H4          71.9568   -64.3484   -61.1998 H            1 PNG601   0.0000
    26 H5          74.4128   -63.0871   -61.9459 H            1 PNG601   0.0000
    27 H6          72.1936   -62.0846   -63.1906 H            1 PNG601   0.0000
    28 H7          72.3053   -63.6924   -63.4538 H            1 PNG601   0.0000
    29 H8          76.3982   -62.8965   -58.7365 H            1 PNG601   0.0000
    30 H9          78.3130   -63.5855   -60.0123 H            1 PNG601   0.0000
    31 H10         77.1833   -61.0752   -63.1218 H            1 PNG601   0.0000
    32 H11         75.2856   -60.3469   -61.8344 H            1 PNG601   0.0000
    33 H12         73.1494   -63.9014   -57.2886 H            1 PNG601   0.0000
    34 H13         72.1186   -65.7122   -59.4948 H            1 PNG601   0.0000
    35 H14         72.8847   -65.6884   -62.5439 H            1 PNG601   0.0000
    36 H15         74.2976   -61.8147   -63.9462 H            1 PNG601   0.0000
@<TRIPOS>BOND
     1    1    2       1
     2    1   14       1
     3    1   18       1
     4    2    3       1
     5    2   15       1
     6    3    4       1
     7    3   16       1
     8    4    5       1
     9    4   17       1
    10    5    6       1
    11    5   18       1
    12    6   19       1
    13    7    8      ar
    14    7   12      ar
    15    7   14       1
    16    8    9      ar
    17    9   10      ar
    18   10   11      ar
    19   10   13       1
    20   11   12      ar
    21   13   20      ar
    22   13   21      ar
    23    1   22       1
    24    2   23       1
    25    3   24       1
    26    4   25       1
    27    5   26       1
    28    6   27       1
    29    6   28       1
    30    8   29       1
    31    9   30       1
    32   11   31       1
    33   12   32       1
    34   15   33       1
    35   16   34       1
    36   17   35       1
    37   19   36       1
@<TRIPOS>SUBSTRUCTURE
     1 PNG601      1 GROUP             4 C     PNG     0 **** PNG C 601
