@<TRIPOS>MOLECULE
4fcw_ADP_3_ligand
   39    41     1     0     0
SMALL
NO_CHARGES


@<TRIPOS>ATOM
     1 PB          18.1490   -21.6590    36.5550 P.3          1 ADP901   0.0000
     2 O1B         17.2890   -22.8980    36.6060 O.co2        1 ADP901   0.0000
     3 O2B         18.1420   -20.8380    37.8250 O.co2        1 ADP901  -1.0000
     4 O3B         17.9920   -20.8550    35.2870 O.co2        1 ADP901  -1.0000
     5 PA          20.1110   -23.3080    35.4170 P.3          1 ADP901   0.0000
     6 O1A         19.6540   -24.6440    35.9480 O.co2        1 ADP901   0.0000
     7 O2A         19.7180   -22.8730    34.0240 O.co2        1 ADP901  -1.0000
     8 O3A         19.6550   -22.2030    36.4820 O.3          1 ADP901   0.0000
     9 O5'         21.7140   -23.1910    35.5530 O.3          1 ADP901   0.0000
    10 C5'         22.4540   -22.2270    34.7990 C.3          1 ADP901   0.0000
    11 C4'         23.6900   -22.8840    34.1780 C.3          1 ADP901   0.0000
    12 O4'         24.4440   -23.5720    35.1840 O.3          1 ADP901   0.0000
    13 C3'         23.3170   -23.9100    33.1190 C.3          1 ADP901   0.0000
    14 O3'         24.1370   -23.7510    31.9590 O.3          1 ADP901   0.0000
    15 C2'         23.5750   -25.2560    33.7630 C.3          1 ADP901   0.0000
    16 O2'         24.1680   -26.1660    32.8330 O.3          1 ADP901   0.0000
    17 C1'         24.4980   -24.9870    34.9420 C.3          1 ADP901   0.0000
    18 N9          24.0250   -25.7020    36.1570 N.pl3        1 ADP901   0.0000
    19 C8          23.5570   -25.0750    37.2480 C.2          1 ADP901   0.0000
    20 N7          23.1910   -25.9490    38.2090 N.2          1 ADP901   0.0000
    21 C5          23.4240   -27.1830    37.7380 C.ar         1 ADP901   0.0000
    22 C6          23.2520   -28.5540    38.2660 C.ar         1 ADP901   0.0000
    23 N6          22.7450   -28.7520    39.5130 N.pl3        1 ADP901   0.0000
    24 N1          23.6180   -29.5860    37.4620 N.ar         1 ADP901   0.0000
    25 C2          24.1170   -29.3850    36.2240 C.ar         1 ADP901   0.0000
    26 N3          24.3010   -28.1550    35.6850 N.ar         1 ADP901   0.0000
    27 C4          23.9790   -27.0260    36.3820 C.ar         1 ADP901   0.0000
    28 H5'1        22.7422   -21.4843    35.4034 H            1 ADP901   0.0000
    29 H5'2        21.8741   -21.8592    34.0721 H            1 ADP901   0.0000
    30 H4'         24.2638   -22.1778    33.7632 H            1 ADP901   0.0000
    31 H3'         22.3511   -23.8216    32.8756 H            1 ADP901   0.0000
    32 H5          24.6485   -24.5943    31.7943 H            1 ADP901   0.0000
    33 H2'         22.7121   -25.6361    34.0961 H            1 ADP901   0.0000
    34 H7          23.4486   -26.6683    32.3533 H            1 ADP901   0.0000
    35 H1'         25.4327   -25.2643    34.7196 H            1 ADP901   0.0000
    36 H9          23.4880   -24.0814    37.3376 H            1 ADP901   0.0000
    37 H10         22.6310   -29.6812    39.8647 H            1 ADP901   0.0000
    38 H11         22.4864   -27.9684    40.0778 H            1 ADP901   0.0000
    39 H12         24.3636   -30.1846    35.6764 H            1 ADP901   0.0000
@<TRIPOS>BOND
     1    1    2      ar
     2    1    3      ar
     3    1    4      ar
     4    1    8       1
     5    5    6      ar
     6    5    7      ar
     7    5    8       1
     8    5    9       1
     9    9   10       1
    10   10   11       1
    11   11   12       1
    12   11   13       1
    13   12   17       1
    14   13   14       1
    15   13   15       1
    16   15   16       1
    17   15   17       1
    18   17   18       1
    19   18   19       1
    20   18   27       1
    21   19   20       2
    22   20   21       1
    23   21   22      ar
    24   21   27      ar
    25   22   23       1
    26   22   24      ar
    27   24   25      ar
    28   25   26      ar
    29   26   27      ar
    30   25   39       1
    31   23   38       1
    32   23   37       1
    33   10   28       1
    34   10   29       1
    35   11   30       1
    36   13   31       1
    37   14   32       1
    38   15   33       1
    39   16   34       1
    40   17   35       1
    41   19   36       1
@<TRIPOS>SUBSTRUCTURE
     1 ADP901      1 GROUP             4 F     ADP     0 **** ADP F 901
