@<TRIPOS>MOLECULE
3h2s_NDP_2_ligand
   79    83     1     0     0
SMALL
NO_CHARGES


@<TRIPOS>ATOM
     1 PA          20.3300    45.2870     6.4010 P.3          1 NDP301   0.0000
     2 O1A         18.8600    45.6430     6.7620 O.co2        1 NDP301   0.0000
     3 O2A         20.7990    44.9470     5.0420 O.co2        1 NDP301  -1.0000
     4 O5B         20.8600    44.0190     7.3690 O.3          1 NDP301   0.0000
     5 C5B         20.5890    44.0250     8.7630 C.3          1 NDP301   0.0000
     6 C4B         21.4510    42.8220     9.3140 C.3          1 NDP301   0.0000
     7 O4B         20.9360    42.6590    10.6430 O.3          1 NDP301   0.0000
     8 C3B         21.1180    41.4880     8.5680 C.3          1 NDP301   0.0000
     9 O3B         22.2670    40.7080     8.5700 O.3          1 NDP301   0.0000
    10 C2B         19.9960    40.8600     9.4700 C.3          1 NDP301   0.0000
    11 O2B         19.8950    39.4780     9.4050 O.3          1 NDP301   0.0000
    12 C1B         20.4890    41.3550    10.8630 C.3          1 NDP301   0.0000
    13 N9A         19.3470    41.4240    11.7900 N.pl3        1 NDP301   0.0000
    14 C8A         18.2060    42.2450    11.6250 C.2          1 NDP301   0.0000
    15 N7A         17.3010    42.0720    12.5910 N.2          1 NDP301   0.0000
    16 C5A         17.8880    41.1300    13.4630 C.ar         1 NDP301   0.0000
    17 C6A         17.3910    40.5760    14.6610 C.ar         1 NDP301   0.0000
    18 N6A         16.1830    40.9640    15.1760 N.pl3        1 NDP301   0.0000
    19 N1A         18.1720    39.6440    15.3070 N.ar         1 NDP301   0.0000
    20 C2A         19.3530    39.2900    14.7110 C.ar         1 NDP301   0.0000
    21 N3A         19.9540    39.7850    13.5930 N.ar         1 NDP301   0.0000
    22 C4A         19.1700    40.7330    12.9910 C.ar         1 NDP301   0.0000
    23 O3          21.0670    46.6210     6.7730 O.3          1 NDP301   0.0000
    24 PN          22.1240    47.7140     6.2640 P.3          1 NDP301   0.0000
    25 O1N         23.3790    46.9130     5.8630 O.co2        1 NDP301   0.0000
    26 O2N         21.4330    48.4120     5.1510 O.co2        1 NDP301  -1.0000
    27 O5D         22.5060    48.6980     7.5230 O.3          1 NDP301   0.0000
    28 C5D         23.7100    48.5380     8.2470 C.3          1 NDP301   0.0000
    29 C4D         23.8140    49.7430     9.1900 C.3          1 NDP301   0.0000
    30 O4D         23.6850    50.8900     8.3670 O.3          1 NDP301   0.0000
    31 C3D         22.7800    49.8750    10.3480 C.3          1 NDP301   0.0000
    32 O3D         23.4090    50.4150    11.4540 O.3          1 NDP301   0.0000
    33 C2D         21.7480    50.8720     9.6910 C.3          1 NDP301   0.0000
    34 O2D         21.0560    51.6350    10.6450 O.3          1 NDP301   0.0000
    35 C1D         22.7770    51.7920     8.9400 C.3          1 NDP301   0.0000
    36 N1N         22.1180    52.7200     8.0100 N.4          1 NDP301   1.0000
    37 C2N         22.1080    54.1200     8.4060 C.3          1 NDP301   0.0000
    38 C3N         21.2560    55.0190     7.5280 C.3          1 NDP301   0.0000
    39 C7N         21.5230    56.4810     7.8370 C.2          1 NDP301   0.0000
    40 O7N         21.6960    56.8330     8.9980 O.2          1 NDP301   0.0000
    41 N7N         21.3490    57.4190     6.8320 N.am         1 NDP301   0.0000
    42 C4N         21.1630    54.6920     6.0630 C.3          1 NDP301   0.0000
    43 C5N         20.8720    53.2360     5.8410 C.3          1 NDP301   0.0000
    44 C6N         21.4890    52.2260     6.7940 C.3          1 NDP301   0.0000
    45 P2B         19.1370    38.8230     8.1340 P.3          1 NDP301   0.0000
    46 O1X         20.0390    38.9120     6.8700 O.co2        1 NDP301   0.0000
    47 O2X         19.0050    37.2760     8.4140 O.co2        1 NDP301  -1.0000
    48 O3X         17.8460    39.5190     7.9080 O.co2        1 NDP301  -1.0000
    49 H5B1        19.6157    43.8765     8.9382 H            1 NDP301   0.0000
    50 H5B2        20.8745    44.8886     9.1785 H            1 NDP301   0.0000
    51 H4B         22.4303    43.0243     9.3094 H            1 NDP301   0.0000
    52 H3B         20.7905    41.6581     7.6386 H            1 NDP301   0.0000
    53 H5          22.0850    39.8452     8.0984 H            1 NDP301   0.0000
    54 H2B         19.1128    41.2763     9.2539 H            1 NDP301   0.0000
    55 H1B         21.2184    40.7728    11.2222 H            1 NDP301   0.0000
    56 H8A         18.0902    42.8859    10.8662 H            1 NDP301   0.0000
    57 H6A1        15.8488    40.5587    16.0269 H            1 NDP301   0.0000
    58 H6A2        15.6350    41.6527    14.7012 H            1 NDP301   0.0000
    59 H2A         19.8520    38.5534    15.1675 H            1 NDP301   0.0000
    60 H5D1        24.4898    48.5207     7.6212 H            1 NDP301   0.0000
    61 H5D2        23.6862    47.6882     8.7736 H            1 NDP301   0.0000
    62 H4D         24.7308    49.7477     9.5892 H            1 NDP301   0.0000
    63 H3D         22.3547    48.9955    10.5614 H            1 NDP301   0.0000
    64 H16         24.1509    51.0154    11.1555 H            1 NDP301   0.0000
    65 H2D         21.1275    50.4080     9.0588 H            1 NDP301   0.0000
    66 H18         21.7084    52.1740    11.1777 H            1 NDP301   0.0000
    67 H1D         23.2665    52.3331     9.6238 H            1 NDP301   0.0000
    68 H2N1        23.0486    54.4585     8.3792 H            1 NDP301   0.0000
    69 H2N2        21.7598    54.1770     9.3417 H            1 NDP301   0.0000
    70 H3N         20.3264    54.8699     7.8651 H            1 NDP301   0.0000
    71 H7N1        21.5200    58.3869     7.0164 H            1 NDP301   0.0000
    72 H7N2        21.0525    57.1280     5.9224 H            1 NDP301   0.0000
    73 H4N1        22.0317    54.9203     5.6234 H            1 NDP301   0.0000
    74 H4N2        20.4298    55.2357     5.6547 H            1 NDP301   0.0000
    75 H5N1        21.1894    53.0073     4.9207 H            1 NDP301   0.0000
    76 H5N2        19.8798    53.1214     5.8895 H            1 NDP301   0.0000
    77 H6N1        20.7620    51.5976     7.0709 H            1 NDP301   0.0000
    78 H6N2        22.1866    51.7241     6.2826 H            1 NDP301   0.0000
    79 H1N         22.9793    52.8553     7.5203 H            1 NDP301   0.0000
@<TRIPOS>BOND
     1    1    2      ar
     2    1    3      ar
     3    1    4       1
     4    1   23       1
     5    4    5       1
     6    5    6       1
     7    6    7       1
     8    6    8       1
     9    7   12       1
    10    8    9       1
    11    8   10       1
    12   10   11       1
    13   10   12       1
    14   11   45       1
    15   12   13       1
    16   13   14       1
    17   13   22       1
    18   14   15       2
    19   15   16       1
    20   16   17      ar
    21   16   22      ar
    22   17   18       1
    23   17   19      ar
    24   19   20      ar
    25   20   21      ar
    26   21   22      ar
    27   23   24       1
    28   24   25      ar
    29   24   26      ar
    30   24   27       1
    31   27   28       1
    32   28   29       1
    33   29   30       1
    34   29   31       1
    35   30   35       1
    36   31   32       1
    37   31   33       1
    38   33   34       1
    39   33   35       1
    40   35   36       1
    41   36   37       1
    42   36   44       1
    43   37   38       1
    44   38   39       1
    45   38   42       1
    46   39   40       2
    47   39   41      am
    48   42   43       1
    49   43   44       1
    50   45   46      ar
    51   45   47      ar
    52   45   48      ar
    53   44   78       1
    54    5   49       1
    55    5   50       1
    56    6   51       1
    57    8   52       1
    58    9   53       1
    59   10   54       1
    60   12   55       1
    61   14   56       1
    62   18   57       1
    63   18   58       1
    64   20   59       1
    65   36   79       1
    66   28   60       1
    67   28   61       1
    68   29   62       1
    69   31   63       1
    70   32   64       1
    71   33   65       1
    72   34   66       1
    73   35   67       1
    74   37   68       1
    75   37   69       1
    76   38   70       1
    77   41   71       1
    78   41   72       1
    79   42   73       1
    80   42   74       1
    81   43   75       1
    82   43   76       1
    83   44   77       1
@<TRIPOS>SUBSTRUCTURE
     1 NDP301      1 GROUP             4 B     NDP     0 **** NDP B 301
