@<TRIPOS>MOLECULE
3aut_NAI_1_ligand
   71    75     1     0     0
SMALL
NO_CHARGES


@<TRIPOS>ATOM
     1 PA         -30.3000   -32.2790    -9.6020 P.3          1 NAI301   0.0000
     2 O1A        -30.6170   -31.2160    -8.5590 O.co2        1 NAI301   0.0000
     3 O2A        -31.0110   -33.6170    -9.5900 O.co2        1 NAI301  -1.0000
     4 O5B        -28.7080   -32.5490    -9.6040 O.3          1 NAI301   0.0000
     5 C5B        -27.7610   -31.5800    -9.1490 C.3          1 NAI301   0.0000
     6 C4B        -26.8370   -32.3040    -8.1840 C.3          1 NAI301   0.0000
     7 O4B        -25.8660   -31.4010    -7.6520 O.3          1 NAI301   0.0000
     8 C3B        -27.6140   -32.8900    -7.0010 C.3          1 NAI301   0.0000
     9 O3B        -27.4530   -34.3160    -6.9600 O.3          1 NAI301   0.0000
    10 C2B        -27.0120   -32.2250    -5.7770 C.3          1 NAI301   0.0000
    11 O2B        -26.8540   -33.1250    -4.6760 O.3          1 NAI301   0.0000
    12 C1B        -25.6570   -31.7770    -6.2920 C.3          1 NAI301   0.0000
    13 N9A        -25.0930   -30.6960    -5.4550 N.pl3        1 NAI301   0.0000
    14 C8A        -25.6390   -29.4990    -5.1740 C.2          1 NAI301   0.0000
    15 N7A        -24.7900   -28.8170    -4.3710 N.2          1 NAI301   0.0000
    16 C5A        -23.7150   -29.6070    -4.1510 C.ar         1 NAI301   0.0000
    17 C6A        -22.5420   -29.4540    -3.4210 C.ar         1 NAI301   0.0000
    18 N6A        -22.3230   -28.2990    -2.7380 N.pl3        1 NAI301   0.0000
    19 N1A        -21.6290   -30.4630    -3.4130 N.ar         1 NAI301   0.0000
    20 C2A        -21.8440   -31.6060    -4.0920 C.ar         1 NAI301   0.0000
    21 N3A        -22.9720   -31.7850    -4.8010 N.ar         1 NAI301   0.0000
    22 C4A        -23.9130   -30.7960    -4.8410 C.ar         1 NAI301   0.0000
    23 O3         -30.5400   -31.6040   -11.0560 O.3          1 NAI301   0.0000
    24 PN         -29.8570   -32.0990   -12.4440 P.3          1 NAI301   0.0000
    25 O1N        -29.4820   -33.5630   -12.3720 O.co2        1 NAI301   0.0000
    26 O2N        -30.7790   -31.5940   -13.5230 O.co2        1 NAI301  -1.0000
    27 O5D        -28.4900   -31.2260   -12.5170 O.3          1 NAI301   0.0000
    28 C5D        -27.3520   -31.6450   -13.2790 C.3          1 NAI301   0.0000
    29 C4D        -26.5450   -30.4610   -13.8400 C.3          1 NAI301   0.0000
    30 O4D        -26.9890   -30.1430   -15.1620 O.3          1 NAI301   0.0000
    31 C3D        -26.6460   -29.1660   -13.0380 C.3          1 NAI301   0.0000
    32 O3D        -25.3720   -28.5200   -13.0400 O.3          1 NAI301   0.0000
    33 C2D        -27.5940   -28.3000   -13.8200 C.3          1 NAI301   0.0000
    34 O2D        -27.2240   -26.9380   -13.6100 O.3          1 NAI301   0.0000
    35 C1D        -27.3700   -28.7670   -15.2560 C.3          1 NAI301   0.0000
    36 N1N        -28.5200   -28.6290   -16.1940 N.pl3        1 NAI301   0.0000
    37 C2N        -29.7840   -28.8700   -15.6640 C.2          1 NAI301   0.0000
    38 C3N        -30.8650   -28.6600   -16.4530 C.2          1 NAI301   0.0000
    39 C7N        -32.1480   -29.3560   -16.2550 C.2          1 NAI301   0.0000
    40 O7N        -33.1430   -29.0030   -16.8930 O.2          1 NAI301   0.0000
    41 N7N        -32.1800   -30.3470   -15.3640 N.am         1 NAI301   0.0000
    42 C4N        -30.7890   -27.6500   -17.5860 C.3          1 NAI301   0.0000
    43 C5N        -29.4020   -27.0700   -17.7190 C.2          1 NAI301   0.0000
    44 C6N        -28.4750   -27.3980   -16.8170 C.2          1 NAI301   0.0000
    45 H5B1       -28.2302   -30.8304    -8.6821 H            1 NAI301   0.0000
    46 H5B2       -27.2392   -31.2171    -9.9211 H            1 NAI301   0.0000
    47 H4B        -26.3687   -33.0428    -8.6685 H            1 NAI301   0.0000
    48 H3B        -28.5832   -32.6560    -7.0771 H            1 NAI301   0.0000
    49 H5         -28.1752   -34.7486    -7.4997 H            1 NAI301   0.0000
    50 H2B        -27.5603   -31.4342    -5.5049 H            1 NAI301   0.0000
    51 H7         -26.9358   -32.6189    -3.8174 H            1 NAI301   0.0000
    52 H1B        -25.0325   -32.5577    -6.2688 H            1 NAI301   0.0000
    53 H8A        -26.5236   -29.1688    -5.5033 H            1 NAI301   0.0000
    54 H6A1       -21.4815   -28.1818    -2.2107 H            1 NAI301   0.0000
    55 H6A2       -23.0035   -27.5666    -2.7630 H            1 NAI301   0.0000
    56 H2A        -21.1556   -32.3310    -4.0685 H            1 NAI301   0.0000
    57 H5D1       -27.6680   -32.2075   -14.0430 H            1 NAI301   0.0000
    58 H5D2       -26.7547   -32.1887   -12.6894 H            1 NAI301   0.0000
    59 H4D        -25.5827   -30.7290   -13.8864 H            1 NAI301   0.0000
    60 H3D        -26.9761   -29.3309   -12.1086 H            1 NAI301   0.0000
    61 H17        -24.6917   -29.1232   -12.6237 H            1 NAI301   0.0000
    62 H2D        -28.5395   -28.4603   -13.5365 H            1 NAI301   0.0000
    63 H19        -27.2843   -26.7227   -12.6353 H            1 NAI301   0.0000
    64 H1D        -26.5979   -28.2553   -15.6328 H            1 NAI301   0.0000
    65 H2N        -29.8918   -29.1906   -14.7229 H            1 NAI301   0.0000
    66 H7N1       -33.0317   -30.8447   -15.2001 H            1 NAI301   0.0000
    67 H7N2       -31.3523   -30.5927   -14.8595 H            1 NAI301   0.0000
    68 H4N1       -31.4350   -26.9086   -17.4041 H            1 NAI301   0.0000
    69 H4N2       -31.0348   -28.1037   -18.4426 H            1 NAI301   0.0000
    70 H5N        -29.1811   -26.4495   -18.4715 H            1 NAI301   0.0000
    71 H6N        -27.7465   -26.7510   -16.5920 H            1 NAI301   0.0000
@<TRIPOS>BOND
     1    1    2      ar
     2    1    3      ar
     3    1    4       1
     4    1   23       1
     5    4    5       1
     6    5    6       1
     7    6    7       1
     8    6    8       1
     9    7   12       1
    10    8    9       1
    11    8   10       1
    12   10   11       1
    13   10   12       1
    14   12   13       1
    15   13   14       1
    16   13   22       1
    17   14   15       2
    18   15   16       1
    19   16   17      ar
    20   16   22      ar
    21   17   18       1
    22   17   19      ar
    23   19   20      ar
    24   20   21      ar
    25   21   22      ar
    26   23   24       1
    27   24   25      ar
    28   24   26      ar
    29   24   27       1
    30   27   28       1
    31   28   29       1
    32   29   30       1
    33   29   31       1
    34   30   35       1
    35   31   32       1
    36   31   33       1
    37   33   34       1
    38   33   35       1
    39   35   36       1
    40   36   37       1
    41   36   44       1
    42   37   38       2
    43   38   39       1
    44   38   42       1
    45   39   40       2
    46   39   41      am
    47   42   43       1
    48   43   44       2
    49   44   71       1
    50    5   45       1
    51    5   46       1
    52    6   47       1
    53    8   48       1
    54    9   49       1
    55   10   50       1
    56   11   51       1
    57   12   52       1
    58   14   53       1
    59   18   54       1
    60   18   55       1
    61   20   56       1
    62   43   70       1
    63   28   57       1
    64   28   58       1
    65   29   59       1
    66   31   60       1
    67   32   61       1
    68   33   62       1
    69   34   63       1
    70   35   64       1
    71   37   65       1
    72   41   66       1
    73   41   67       1
    74   42   68       1
    75   42   69       1
@<TRIPOS>SUBSTRUCTURE
     1 NAI301      1 GROUP             4 B     NAI     0 **** NAI B 301
