@<TRIPOS>MOLECULE
1u2r_SO1_1_ligand
   74    78     1     0     0
SMALL
NO_CHARGES


@<TRIPOS>ATOM
     1 O14         73.3700    56.6840    18.3690 O.co2        1 SO11700   0.0000
     2 C5          74.5610    56.3240    18.3050 C.2          1 SO11700   0.0000
     3 O15         75.5550    57.0770    18.1860 O.co2        1 SO11700  -1.0000
     4 C1          74.8290    54.7540    18.3530 C.3          1 SO11700   0.0000
     5 C4          75.4630    54.2380    16.9500 C.2          1 SO11700   0.0000
     6 C12         75.3050    52.8270    17.0330 C.2          1 SO11700   0.0000
     7 C6          74.6680    52.6030    18.4140 C.3          1 SO11700   0.0000
     8 C10         75.8390    52.7310    19.4630 C.3          1 SO11700   0.0000
     9 C3          75.7920    54.3070    19.6560 C.3          1 SO11700   0.0000
    10 C11         77.1750    54.9950    19.4510 C.2          1 SO11700   0.0000
    11 O19         78.2130    54.4320    19.1550 O.2          1 SO11700   0.0000
    12 C9          75.0430    54.7930    20.9790 C.3          1 SO11700   0.0000
    13 C18         75.6260    54.6210    22.3670 C.3          1 SO11700   0.0000
    14 C24         74.4390    55.0720    23.2420 C.3          1 SO11700   0.0000
    15 C22         73.1290    54.6900    22.4830 C.3          1 SO11700   0.0000
    16 C25         72.2780    55.9570    22.2690 C.3          1 SO11700   0.0000
    17 C16         73.6720    54.0240    21.2050 C.3          1 SO11700   0.0000
    18 C7          72.7970    53.9880    19.9250 C.3          1 SO11700   0.0000
    19 C2          73.6420    53.7740    18.5380 C.3          1 SO11700   0.0000
    20 C8          72.4460    53.7630    17.5160 C.3          1 SO11700   0.0000
    21 O17         71.8550    52.4780    17.5550 O.3          1 SO11700   0.0000
    22 C52         70.7940    52.3110    16.6770 C.3          1 SO11700   0.0000
    23 O56         69.7540    53.3390    16.9200 O.3          1 SO11700   0.0000
    24 C56         68.6340    53.2550    16.0040 C.3          1 SO11700   0.0000
    25 C61         67.6510    54.3820    16.3540 C.3          1 SO11700   0.0000
    26 C55         67.9620    51.8270    16.0830 C.3          1 SO11700   0.0000
    27 O64         66.8570    51.7240    15.1480 O.3          1 SO11700   0.0000
    28 C65         65.5640    51.6040    15.7510 C.3          1 SO11700   0.0000
    29 C54         69.0190    50.7370    15.7580 C.3          1 SO11700   0.0000
    30 O60         69.5150    50.9390    14.4330 O.3          1 SO11700   0.0000
    31 C53         70.1910    50.8440    16.7580 C.3          1 SO11700   0.0000
    32 O57         69.6950    50.5980    18.0720 O.3          1 SO11700   0.0000
    33 C13         76.0890    55.0780    15.8270 C.3          1 SO11700   0.0000
    34 C20         77.2180    54.3150    15.0890 C.3          1 SO11700   0.0000
    35 C21         75.0480    55.5430    14.7770 C.3          1 SO11700   0.0000
    36 H1          75.5515    52.1391    16.3503 H            1 SO11700   0.0000
    37 H2          74.2181    51.7118    18.4716 H            1 SO11700   0.0000
    38 H3          76.7146    52.4207    19.0929 H            1 SO11700   0.0000
    39 H4          75.6428    52.2395    20.3115 H            1 SO11700   0.0000
    40 H5          77.2133    55.9867    19.5734 H            1 SO11700   0.0000
    41 H6          74.8273    55.7625    20.8624 H            1 SO11700   0.0000
    42 H7          76.4262    55.2048    22.5042 H            1 SO11700   0.0000
    43 H8          75.8734    53.6688    22.5461 H            1 SO11700   0.0000
    44 H9          74.4756    56.0611    23.3845 H            1 SO11700   0.0000
    45 H10         74.4699    54.6065    24.1265 H            1 SO11700   0.0000
    46 H11         72.6115    54.0221    23.0179 H            1 SO11700   0.0000
    47 H12         71.4379    55.7161    21.7830 H            1 SO11700   0.0000
    48 H13         72.0470    56.3571    23.1559 H            1 SO11700   0.0000
    49 H14         72.7969    56.6199    21.7293 H            1 SO11700   0.0000
    50 H15         73.8975    53.0777    21.4367 H            1 SO11700   0.0000
    51 H16         72.3015    54.8542    19.8596 H            1 SO11700   0.0000
    52 H17         72.1436    53.2361    20.0131 H            1 SO11700   0.0000
    53 H18         72.7843    53.9539    16.5945 H            1 SO11700   0.0000
    54 H19         71.7720    54.4553    17.7738 H            1 SO11700   0.0000
    55 H20         71.1431    52.4452    15.7496 H            1 SO11700   0.0000
    56 H21         68.9697    53.4001    15.0733 H            1 SO11700   0.0000
    57 H22         66.8672    54.3452    15.7341 H            1 SO11700   0.0000
    58 H23         67.3362    54.2690    17.2964 H            1 SO11700   0.0000
    59 H24         68.1096    55.2656    16.2594 H            1 SO11700   0.0000
    60 H25         67.6181    51.6803    17.0105 H            1 SO11700   0.0000
    61 H26         64.8676    51.5390    15.0363 H            1 SO11700   0.0000
    62 H27         65.5362    50.7816    16.3192 H            1 SO11700   0.0000
    63 H28         65.3851    52.4076    16.3187 H            1 SO11700   0.0000
    64 H29         68.6003    49.8314    15.8261 H            1 SO11700   0.0000
    65 H30         68.7592    50.8769    13.7811 H            1 SO11700   0.0000
    66 H31         70.8962    50.1729    16.5291 H            1 SO11700   0.0000
    67 H32         69.8415    51.4075    18.6406 H            1 SO11700   0.0000
    68 H33         76.4911    55.8940    16.2423 H            1 SO11700   0.0000
    69 H34         77.5969    54.8957    14.3684 H            1 SO11700   0.0000
    70 H35         77.9395    54.0768    15.7391 H            1 SO11700   0.0000
    71 H36         76.8461    53.4801    14.6832 H            1 SO11700   0.0000
    72 H37         75.5054    56.0837    14.0710 H            1 SO11700   0.0000
    73 H38         74.6173    54.7437    14.3580 H            1 SO11700   0.0000
    74 H39         74.3497    56.1016    15.2246 H            1 SO11700   0.0000
@<TRIPOS>BOND
     1    1    2      ar
     2    2    3      ar
     3    2    4       1
     4    4    5       1
     5    4    9       1
     6    4   19       1
     7    5    6       2
     8    5   33       1
     9    6    7       1
    10    7    8       1
    11    7   19       1
    12    8    9       1
    13    9   10       1
    14    9   12       1
    15   10   11       2
    16   12   13       1
    17   12   17       1
    18   13   14       1
    19   14   15       1
    20   15   16       1
    21   15   17       1
    22   17   18       1
    23   18   19       1
    24   19   20       1
    25   20   21       1
    26   21   22       1
    27   22   23       1
    28   22   31       1
    29   23   24       1
    30   24   25       1
    31   24   26       1
    32   26   27       1
    33   26   29       1
    34   27   28       1
    35   29   30       1
    36   29   31       1
    37   31   32       1
    38   33   34       1
    39   33   35       1
    40   35   74       1
    41    6   36       1
    42    7   37       1
    43    8   38       1
    44    8   39       1
    45   10   40       1
    46   12   41       1
    47   13   42       1
    48   13   43       1
    49   14   44       1
    50   14   45       1
    51   15   46       1
    52   16   47       1
    53   16   48       1
    54   16   49       1
    55   17   50       1
    56   18   51       1
    57   18   52       1
    58   20   53       1
    59   20   54       1
    60   22   55       1
    61   24   56       1
    62   25   57       1
    63   25   58       1
    64   25   59       1
    65   26   60       1
    66   28   61       1
    67   28   62       1
    68   28   63       1
    69   29   64       1
    70   30   65       1
    71   31   66       1
    72   32   67       1
    73   33   68       1
    74   34   69       1
    75   34   70       1
    76   34   71       1
    77   35   72       1
    78   35   73       1
@<TRIPOS>SUBSTRUCTURE
     1 SO11700     1 GROUP             4 A     SO1     0 **** SO1 A1700
