@<TRIPOS>MOLECULE
4xg1_LLP_3_ligand
   48    48     1     0     0
SMALL
NO_CHARGES


@<TRIPOS>ATOM
     1 N1          58.7240     9.9980    26.3040 N.ar         1 LLP504   0.0000
     2 C2          59.1080     9.2190    25.3040 C.ar         1 LLP504   0.0000
     3 C2'         59.4850     9.8550    24.0200 C.3          1 LLP504   0.0000
     4 C3          59.1820     7.7550    25.4440 C.ar         1 LLP504   0.0000
     5 O3          59.5590     6.9250    24.4230 O.3          1 LLP504   0.0000
     6 C4          58.8130     7.1740    26.7100 C.ar         1 LLP504   0.0000
     7 C4'         58.8620     5.6880    26.9400 C.3          1 LLP504   0.0000
     8 C5          58.4410     8.1270    27.7790 C.ar         1 LLP504   0.0000
     9 C6          58.4190     9.5020    27.5200 C.ar         1 LLP504   0.0000
    10 C5'         58.0560     7.5850    29.1020 C.3          1 LLP504   0.0000
    11 OP4         59.1520     6.7980    29.5970 O.3          1 LLP504   0.0000
    12 P           59.0160     6.2120    31.1000 P.3          1 LLP504   0.0000
    13 OP1         60.1830     5.2670    31.2920 O.co2        1 LLP504   0.0000
    14 OP2         58.9910     7.5450    31.8450 O.co2        1 LLP504  -1.0000
    15 OP3         57.6610     5.5470    31.0490 O.co2        1 LLP504  -1.0000
    16 N           57.0880    -1.0930    27.2120 N.4          1 LLP504   1.0000
    17 CA          58.3920    -0.9090    27.9260 C.3          1 LLP504   0.0000
    18 CB          58.6320     0.5870    28.1220 C.3          1 LLP504   0.0000
    19 CG          58.9110     1.3340    26.8280 C.3          1 LLP504   0.0000
    20 CD          58.8640     2.8240    27.0500 C.3          1 LLP504   0.0000
    21 CE          59.0130     3.4920    25.7060 C.3          1 LLP504   0.0000
    22 NZ          59.2010     4.9430    25.7690 N.4          1 LLP504   1.0000
    23 C           58.3260    -1.5930    29.2870 C.2          1 LLP504   0.0000
    24 O           57.3690    -2.3230    29.6010 O.co2        1 LLP504   0.0000
    25 OXT         59.2190    -1.4060    30.1490 O.co2        1 LLP504  -1.0000
    26 H2'1        59.7508     9.1489    23.3637 H            1 LLP504   0.0000
    27 H2'2        58.7054    10.3678    23.6604 H            1 LLP504   0.0000
    28 H2'3        60.2532    10.4776    24.1693 H            1 LLP504   0.0000
    29 H4          59.8002     7.3073    23.5310 H            1 LLP504   0.0000
    30 H4'1        57.9631     5.3867    27.2581 H            1 LLP504   0.0000
    31 H4'2        59.5456     5.4988    27.6449 H            1 LLP504   0.0000
    32 H7          58.1708    10.1326    28.2554 H            1 LLP504   0.0000
    33 H5'1        57.2415     7.0121    29.0099 H            1 LLP504   0.0000
    34 H5'2        57.8654     8.3363    29.7339 H            1 LLP504   0.0000
    35 H10         57.1253    -1.9253    26.6590 H            1 LLP504   0.0000
    36 H11         56.3494    -1.1705    27.8816 H            1 LLP504   0.0000
    37 HA          59.1340    -1.3033    27.3839 H            1 LLP504   0.0000
    38 HB1         59.4172     0.7041    28.7301 H            1 LLP504   0.0000
    39 HB2         57.8189     0.9844    28.5473 H            1 LLP504   0.0000
    40 HG1         58.2219     1.0818    26.1486 H            1 LLP504   0.0000
    41 HG2         59.8183     1.0809    26.4923 H            1 LLP504   0.0000
    42 HD1         59.6112     3.1023    27.6535 H            1 LLP504   0.0000
    43 HD2         57.9896     3.0796    27.4624 H            1 LLP504   0.0000
    44 HE1         58.1885     3.3064    25.1714 H            1 LLP504   0.0000
    45 HE2         59.8059     3.0936    25.2450 H            1 LLP504   0.0000
    46 HZ1         60.1724     5.1095    25.5997 H            1 LLP504   0.0000
    47 H22         56.9188    -0.3059    26.6188 H            1 LLP504   0.0000
    48 HZ2         58.6612     5.3304    25.0217 H            1 LLP504   0.0000
@<TRIPOS>BOND
     1    1    2      ar
     2    1    9      ar
     3    2    3       1
     4    2    4      ar
     5    4    5       1
     6    4    6      ar
     7    6    7       1
     8    6    8      ar
     9    7   22       1
    10    8    9      ar
    11    8   10       1
    12   10   11       1
    13   11   12       1
    14   12   13      ar
    15   12   14      ar
    16   12   15      ar
    17   16   17       1
    18   17   18       1
    19   17   23       1
    20   18   19       1
    21   19   20       1
    22   20   21       1
    23   21   22       1
    24   23   24      ar
    25   23   25      ar
    26    3   26       1
    27    3   27       1
    28    3   28       1
    29    5   29       1
    30    7   30       1
    31    7   31       1
    32    9   32       1
    33   10   33       1
    34   10   34       1
    35   22   48       1
    36   22   46       1
    37   16   35       1
    38   16   36       1
    39   17   37       1
    40   18   38       1
    41   18   39       1
    42   19   40       1
    43   19   41       1
    44   20   42       1
    45   20   43       1
    46   21   44       1
    47   21   45       1
    48   16   47       1
@<TRIPOS>SUBSTRUCTURE
     1 LLP504      1 GROUP             4 C     LLP     0 **** LLP C 504
