@<TRIPOS>MOLECULE
1nr6_DIF_1_ligand
   29    30     1     0     0
SMALL
NO_CHARGES


@<TRIPOS>ATOM
     1 C1          -8.2200   -16.1770   -28.6420 C.ar         1 DIF501   0.0000
     2 C2          -8.5510   -14.8780   -29.0060 C.ar         1 DIF501   0.0000
     3 CL2         -7.2680   -13.8110   -29.2480 Cl           1 DIF501   0.0000
     4 C3          -9.9130   -14.4960   -29.1610 C.ar         1 DIF501   0.0000
     5 C4         -10.9140   -15.4610   -28.9430 C.ar         1 DIF501   0.0000
     6 CL4        -12.5520   -15.0820   -29.1130 Cl           1 DIF501   0.0000
     7 C5         -10.5560   -16.7660   -28.5780 C.ar         1 DIF501   0.0000
     8 C6          -9.2140   -17.1220   -28.4270 C.ar         1 DIF501   0.0000
     9 N1         -10.2160   -13.1640   -29.5280 N.pl3        1 DIF501   0.0000
    10 C7          -9.4200   -10.9430   -29.1770 C.ar         1 DIF501   0.0000
    11 C8          -9.7460   -12.1890   -28.6290 C.ar         1 DIF501   0.0000
    12 C9          -9.5840   -12.3950   -27.2500 C.ar         1 DIF501   0.0000
    13 C10         -9.1020   -11.3620   -26.4440 C.ar         1 DIF501   0.0000
    14 C11         -8.7790   -10.1210   -27.0030 C.ar         1 DIF501   0.0000
    15 C12         -8.9400    -9.9120   -28.3740 C.ar         1 DIF501   0.0000
    16 C13         -9.5880   -10.7280   -30.6080 C.3          1 DIF501   0.0000
    17 C14        -10.7950    -9.9890   -30.8370 C.2          1 DIF501   0.0000
    18 O1         -11.8520   -10.4410   -30.4210 O.co2        1 DIF501   0.0000
    19 O2         -10.7720    -8.8390   -31.4910 O.co2        1 DIF501  -1.0000
    20 H1          -7.2594   -16.4331   -28.5341 H            1 DIF501   0.0000
    21 H2         -11.2693   -17.4497   -28.4240 H            1 DIF501   0.0000
    22 H3          -8.9696   -18.0555   -28.1646 H            1 DIF501   0.0000
    23 H4         -10.7230   -12.9340   -30.3587 H            1 DIF501   0.0000
    24 H5          -9.8135   -13.2803   -26.8455 H            1 DIF501   0.0000
    25 H6          -8.9870   -11.5100   -25.4617 H            1 DIF501   0.0000
    26 H7          -8.4333    -9.3846   -26.4214 H            1 DIF501   0.0000
    27 H8          -8.7116    -9.0259   -28.7773 H            1 DIF501   0.0000
    28 H9          -9.6432   -11.6109   -31.0743 H            1 DIF501   0.0000
    29 H10         -8.8080   -10.2121   -30.9622 H            1 DIF501   0.0000
@<TRIPOS>BOND
     1    1    2      ar
     2    1    8      ar
     3    2    3       1
     4    2    4      ar
     5    4    5      ar
     6    4    9       1
     7    5    6       1
     8    5    7      ar
     9    7    8      ar
    10    9   11       1
    11   10   11      ar
    12   10   15      ar
    13   10   16       1
    14   11   12      ar
    15   12   13      ar
    16   13   14      ar
    17   14   15      ar
    18   16   17       1
    19   17   18      ar
    20   17   19      ar
    21    1   20       1
    22    7   21       1
    23    8   22       1
    24    9   23       1
    25   12   24       1
    26   13   25       1
    27   14   26       1
    28   15   27       1
    29   16   28       1
    30   16   29       1
@<TRIPOS>SUBSTRUCTURE
     1 DIF501      1 GROUP             4 A     DIF     0 **** DIF A 501
