@<TRIPOS>MOLECULE
5ez4_NAD_3_ligand
   70    74     1     0     0
SMALL
NO_CHARGES


@<TRIPOS>ATOM
     1 PA         -24.6140    -7.9060    55.2510 P.3          1 NAD501   0.0000
     2 O1A        -23.2440    -8.4520    55.0100 O.co2        1 NAD501   0.0000
     3 O2A        -25.0290    -6.4880    54.8490 O.co2        1 NAD501  -1.0000
     4 O5B        -25.6080    -8.9010    54.4300 O.3          1 NAD501   0.0000
     5 C5B        -25.6840   -10.2720    54.7560 C.3          1 NAD501   0.0000
     6 C4B        -25.7760   -11.1170    53.4970 C.3          1 NAD501   0.0000
     7 O4B        -24.7670   -10.7120    52.5440 O.3          1 NAD501   0.0000
     8 C3B        -25.4770   -12.5570    53.8780 C.3          1 NAD501   0.0000
     9 O3B        -26.2220   -13.4740    53.1030 O.3          1 NAD501   0.0000
    10 C2B        -23.9680   -12.5570    53.6330 C.3          1 NAD501   0.0000
    11 O2B        -23.3330   -13.8090    53.6450 O.3          1 NAD501   0.0000
    12 C1B        -23.8730   -11.7980    52.3320 C.3          1 NAD501   0.0000
    13 N9A        -22.5080   -11.3070    51.9990 N.pl3        1 NAD501   0.0000
    14 C8A        -21.5200   -10.8680    52.8270 C.2          1 NAD501   0.0000
    15 N7A        -20.4310   -10.5150    52.0700 N.2          1 NAD501   0.0000
    16 C5A        -20.7560   -10.6960    50.7630 C.ar         1 NAD501   0.0000
    17 C6A        -20.0920   -10.5360    49.5470 C.ar         1 NAD501   0.0000
    18 N6A        -18.8370   -10.0740    49.4370 N.pl3        1 NAD501   0.0000
    19 N1A        -20.7060   -10.8270    48.3920 N.ar         1 NAD501   0.0000
    20 C2A        -21.9760   -11.2900    48.4260 C.ar         1 NAD501   0.0000
    21 N3A        -22.6380   -11.4900    49.5890 N.ar         1 NAD501   0.0000
    22 C4A        -22.0510   -11.2250    50.7530 C.ar         1 NAD501   0.0000
    23 O3         -25.1640    -8.2620    56.7510 O.3          1 NAD501   0.0000
    24 PN         -24.4590    -7.7640    58.1220 P.3          1 NAD501   0.0000
    25 O1N        -24.7060    -8.6880    59.3010 O.co2        1 NAD501   0.0000
    26 O2N        -23.0430    -7.3650    57.7840 O.co2        1 NAD501  -1.0000
    27 O5D        -25.3210    -6.4320    58.3590 O.3          1 NAD501   0.0000
    28 C5D        -24.5300    -5.2430    58.3430 C.3          1 NAD501   0.0000
    29 C4D        -25.4100    -4.0410    58.5940 C.3          1 NAD501   0.0000
    30 O4D        -26.3160    -3.9650    57.4970 O.3          1 NAD501   0.0000
    31 C3D        -26.2580    -4.1350    59.8600 C.3          1 NAD501   0.0000
    32 O3D        -25.5540    -3.5810    60.9860 O.3          1 NAD501   0.0000
    33 C2D        -27.5200    -3.3770    59.4450 C.3          1 NAD501   0.0000
    34 O2D        -27.4020    -1.9400    59.6650 O.3          1 NAD501   0.0000
    35 C1D        -27.6350    -3.6070    57.9380 C.3          1 NAD501   0.0000
    36 N1N        -28.5930    -4.6520    57.5550 N.ar         1 NAD501   1.0000
    37 C2N        -29.7070    -4.2900    56.8670 C.ar         1 NAD501   0.0000
    38 C3N        -30.6300    -5.2720    56.4770 C.ar         1 NAD501   0.0000
    39 C7N        -31.9290    -4.9710    55.7250 C.2          1 NAD501   0.0000
    40 O7N        -33.0640    -5.5640    56.0890 O.2          1 NAD501   0.0000
    41 N7N        -31.9790    -4.1650    54.6660 N.am         1 NAD501   0.0000
    42 C4N        -30.3430    -6.5950    56.8220 C.ar         1 NAD501   0.0000
    43 C5N        -29.1670    -6.9390    57.5090 C.ar         1 NAD501   0.0000
    44 C6N        -28.2980    -5.9320    57.8600 C.ar         1 NAD501   0.0000
    45 H5B1       -26.4951   -10.4315    55.3188 H            1 NAD501   0.0000
    46 H5B2       -24.8661   -10.5337    55.2684 H            1 NAD501   0.0000
    47 H4B        -26.6878   -11.0443    53.0929 H            1 NAD501   0.0000
    48 H3B        -25.6652   -12.6992    54.8498 H            1 NAD501   0.0000
    49 H5         -27.1989   -13.3105    53.2409 H            1 NAD501   0.0000
    50 H2B        -23.5450   -11.9952    54.3439 H            1 NAD501   0.0000
    51 H7         -23.4655   -14.2414    54.5369 H            1 NAD501   0.0000
    52 H1B        -24.2134   -12.3702    51.5859 H            1 NAD501   0.0000
    53 H8A        -21.5784   -10.8120    53.8237 H            1 NAD501   0.0000
    54 H6A1       -18.4154    -9.9819    48.5349 H            1 NAD501   0.0000
    55 H6A2       -18.3234    -9.8218    50.2571 H            1 NAD501   0.0000
    56 H2A        -22.4410   -11.4911    47.5638 H            1 NAD501   0.0000
    57 H5D1       -24.0876    -5.1503    57.4510 H            1 NAD501   0.0000
    58 H5D2       -23.8321    -5.2987    59.0570 H            1 NAD501   0.0000
    59 H4D        -24.8490    -3.2137    58.6252 H            1 NAD501   0.0000
    60 H3D        -26.4849    -5.0916    60.0427 H            1 NAD501   0.0000
    61 H17        -26.1250    -3.6519    61.8039 H            1 NAD501   0.0000
    62 H2D        -28.3216    -3.7413    59.9191 H            1 NAD501   0.0000
    63 H19        -27.9564    -1.4528    58.9902 H            1 NAD501   0.0000
    64 H1D        -27.9006    -2.7485    57.4993 H            1 NAD501   0.0000
    65 H2N        -29.8682    -3.3295    56.6399 H            1 NAD501   0.0000
    66 H7N1       -32.8509    -3.9974    54.2059 H            1 NAD501   0.0000
    67 H7N2       -31.1446    -3.7274    54.3309 H            1 NAD501   0.0000
    68 H4N        -30.9909    -7.3151    56.5737 H            1 NAD501   0.0000
    69 H5N        -28.9666    -7.8918    57.7371 H            1 NAD501   0.0000
    70 H6N        -27.4484    -6.1490    58.3408 H            1 NAD501   0.0000
@<TRIPOS>BOND
     1    1    2      ar
     2    1    3      ar
     3    1    4       1
     4    1   23       1
     5    4    5       1
     6    5    6       1
     7    6    7       1
     8    6    8       1
     9    7   12       1
    10    8    9       1
    11    8   10       1
    12   10   11       1
    13   10   12       1
    14   12   13       1
    15   13   14       1
    16   13   22       1
    17   14   15       2
    18   15   16       1
    19   16   17      ar
    20   16   22      ar
    21   17   18       1
    22   17   19      ar
    23   19   20      ar
    24   20   21      ar
    25   21   22      ar
    26   23   24       1
    27   24   25      ar
    28   24   26      ar
    29   24   27       1
    30   27   28       1
    31   28   29       1
    32   29   30       1
    33   29   31       1
    34   30   35       1
    35   31   32       1
    36   31   33       1
    37   33   34       1
    38   33   35       1
    39   35   36       1
    40   36   37      ar
    41   36   44      ar
    42   37   38      ar
    43   38   39       1
    44   38   42      ar
    45   39   40       2
    46   39   41      am
    47   42   43      ar
    48   43   44      ar
    49   44   70       1
    50    5   45       1
    51    5   46       1
    52    6   47       1
    53    8   48       1
    54    9   49       1
    55   10   50       1
    56   11   51       1
    57   12   52       1
    58   14   53       1
    59   18   54       1
    60   18   55       1
    61   20   56       1
    62   43   69       1
    63   28   57       1
    64   28   58       1
    65   29   59       1
    66   31   60       1
    67   32   61       1
    68   33   62       1
    69   34   63       1
    70   35   64       1
    71   37   65       1
    72   41   66       1
    73   41   67       1
    74   42   68       1
@<TRIPOS>SUBSTRUCTURE
     1 NAD501      1 GROUP             4 C     NAD     0 **** NAD C 501
