@<TRIPOS>MOLECULE
3a37_ADP_2_ligand
   39    41     1     0     0
SMALL
NO_CHARGES


@<TRIPOS>ATOM
     1 PB          10.4080    50.3980    10.9260 P.3          1 ADP401   0.0000
     2 O1B         10.2460    49.4460    12.0460 O.co2        1 ADP401   0.0000
     3 O2B          9.0000    50.8870    10.3880 O.co2        1 ADP401  -1.0000
     4 O3B         11.1920    49.7480     9.7960 O.co2        1 ADP401  -1.0000
     5 PA          11.0900    53.1840    10.9550 P.3          1 ADP401   0.0000
     6 O1A         11.4050    53.2030     9.5240 O.co2        1 ADP401   0.0000
     7 O2A         12.0680    53.9330    11.7060 O.co2        1 ADP401  -1.0000
     8 O3A         11.0390    51.7070    11.4360 O.3          1 ADP401   0.0000
     9 O5'          9.6030    53.7250    11.1700 O.3          1 ADP401   0.0000
    10 C5'          9.1230    54.3490    12.3870 C.3          1 ADP401   0.0000
    11 C4'          8.9670    55.9180    12.3210 C.3          1 ADP401   0.0000
    12 O4'          9.4320    56.3730    13.5830 O.3          1 ADP401   0.0000
    13 C3'          9.8390    56.6400    11.3090 C.3          1 ADP401   0.0000
    14 O3'          9.1640    57.8030    10.8070 O.3          1 ADP401   0.0000
    15 C2'         11.0800    56.9950    12.0410 C.3          1 ADP401   0.0000
    16 O2'         11.8440    58.0260    11.4190 O.3          1 ADP401   0.0000
    17 C1'         10.5350    57.2780    13.4600 C.3          1 ADP401   0.0000
    18 N9          11.4710    56.9140    14.5990 N.pl3        1 ADP401   0.0000
    19 C8          12.1450    55.7550    14.7270 C.2          1 ADP401   0.0000
    20 N7          12.8690    55.7430    15.8290 N.2          1 ADP401   0.0000
    21 C5          12.6860    56.8630    16.4270 C.ar         1 ADP401   0.0000
    22 C6          13.1780    57.4530    17.6490 C.ar         1 ADP401   0.0000
    23 N6          14.0340    56.7840    18.4440 N.pl3        1 ADP401   0.0000
    24 N1          12.7500    58.7450    18.0060 N.ar         1 ADP401   0.0000
    25 C2          11.8600    59.4800    17.2110 C.ar         1 ADP401   0.0000
    26 N3          11.3910    58.8990    16.0300 N.ar         1 ADP401   0.0000
    27 C4          11.7710    57.6430    15.6280 C.ar         1 ADP401   0.0000
    28 H5'1         9.7673    54.1327    13.1205 H            1 ADP401   0.0000
    29 H5'2         8.2284    53.9579    12.6031 H            1 ADP401   0.0000
    30 H4'          8.0070    56.1671    12.1935 H            1 ADP401   0.0000
    31 H3'         10.0581    56.0242    10.5522 H            1 ADP401   0.0000
    32 H5           9.7496    58.2675    10.1426 H            1 ADP401   0.0000
    33 H2'         11.6521    56.1763    12.0898 H            1 ADP401   0.0000
    34 H7          12.7536    57.6770    11.1937 H            1 ADP401   0.0000
    35 H1'         10.2280    58.2263    13.5408 H            1 ADP401   0.0000
    36 H9          12.1019    55.0012    14.0713 H            1 ADP401   0.0000
    37 H10         14.3664    57.2057    19.2876 H            1 ADP401   0.0000
    38 H11         14.3375    55.8654    18.1909 H            1 ADP401   0.0000
    39 H12         11.5680    60.3972    17.4822 H            1 ADP401   0.0000
@<TRIPOS>BOND
     1    1    2      ar
     2    1    3      ar
     3    1    4      ar
     4    1    8       1
     5    5    6      ar
     6    5    7      ar
     7    5    8       1
     8    5    9       1
     9    9   10       1
    10   10   11       1
    11   11   12       1
    12   11   13       1
    13   12   17       1
    14   13   14       1
    15   13   15       1
    16   15   16       1
    17   15   17       1
    18   17   18       1
    19   18   19       1
    20   18   27       1
    21   19   20       2
    22   20   21       1
    23   21   22      ar
    24   21   27      ar
    25   22   23       1
    26   22   24      ar
    27   24   25      ar
    28   25   26      ar
    29   26   27      ar
    30   25   39       1
    31   23   38       1
    32   23   37       1
    33   10   28       1
    34   10   29       1
    35   11   30       1
    36   13   31       1
    37   14   32       1
    38   15   33       1
    39   16   34       1
    40   17   35       1
    41   19   36       1
@<TRIPOS>SUBSTRUCTURE
     1 ADP401      1 GROUP             4 B     ADP     0 **** ADP B 401
