@<TRIPOS>MOLECULE
2fe4_GDP_1_ligand
   40    42     1     0     0
SMALL
NO_CHARGES


@<TRIPOS>ATOM
     1 PB          13.8010    32.1490    29.1310 P.3          1 GDP201   0.0000
     2 O1B         12.8830    33.1970    29.5160 O.co2        1 GDP201   0.0000
     3 O2B         13.2440    31.2010    28.1670 O.co2        1 GDP201  -1.0000
     4 O3B         15.0650    32.6560    28.5560 O.co2        1 GDP201  -1.0000
     5 O3A         14.1300    31.3430    30.4630 O.3          1 GDP201   0.0000
     6 PA          15.3730    31.4190    31.4730 P.3          1 GDP201   0.0000
     7 O1A         15.4470    32.7630    32.0040 O.co2        1 GDP201   0.0000
     8 O2A         16.5770    30.9760    30.7190 O.co2        1 GDP201  -1.0000
     9 O5'         14.9170    30.3200    32.5050 O.3          1 GDP201   0.0000
    10 C5'         13.7610    30.5360    33.3400 C.3          1 GDP201   0.0000
    11 C4'         13.9040    29.8540    34.7000 C.3          1 GDP201   0.0000
    12 O4'         14.0170    28.4100    34.4590 O.3          1 GDP201   0.0000
    13 C3'         15.1730    30.2580    35.4590 C.3          1 GDP201   0.0000
    14 O3'         14.7640    30.4230    36.8220 O.3          1 GDP201   0.0000
    15 C2'         16.1560    29.0980    35.1940 C.3          1 GDP201   0.0000
    16 O2'         17.1370    28.9440    36.2580 O.3          1 GDP201   0.0000
    17 C1'         15.2540    27.8760    35.0030 C.3          1 GDP201   0.0000
    18 N9          15.8220    26.8720    34.0210 N.pl3        1 GDP201   0.0000
    19 C8          16.3250    27.0440    32.7260 C.2          1 GDP201   0.0000
    20 N7          16.7460    25.9560    32.1320 N.2          1 GDP201   0.0000
    21 C5          16.5150    24.9950    33.0810 C.2          1 GDP201   0.0000
    22 C6          16.7310    23.5710    33.0830 C.2          1 GDP201   0.0000
    23 O6          17.2170    22.8970    32.1930 O.2          1 GDP201   0.0000
    24 N1          16.3480    22.9110    34.2780 N.pl3        1 GDP201   0.0000
    25 C2          15.7620    23.5580    35.4180 C.2          1 GDP201   0.0000
    26 N2          15.4370    22.8380    36.4780 N.pl3        1 GDP201   0.0000
    27 N3          15.5520    24.8970    35.4300 N.2          1 GDP201   0.0000
    28 C4          15.9240    25.5540    34.2540 C.2          1 GDP201   0.0000
    29 H5'1        12.9546    30.1679    32.8771 H            1 GDP201   0.0000
    30 H5'2        13.6441    31.5189    33.4821 H            1 GDP201   0.0000
    31 H4'         13.0980    30.0427    35.2611 H            1 GDP201   0.0000
    32 H3'         15.5386    31.1157    35.0974 H            1 GDP201   0.0000
    33 H5          15.5523    30.6892    37.3767 H            1 GDP201   0.0000
    34 H2'         16.6388    29.2768    34.3367 H            1 GDP201   0.0000
    35 H7          17.9411    29.5022    36.0534 H            1 GDP201   0.0000
    36 H1'         15.0805    27.4354    35.8838 H            1 GDP201   0.0000
    37 H9          16.3604    27.9400    32.2833 H            1 GDP201   0.0000
    38 H10         15.0284    23.2800    37.2765 H            1 GDP201   0.0000
    39 H11         15.5998    21.8513    36.4813 H            1 GDP201   0.0000
    40 H12         16.4968    21.9235    34.3307 H            1 GDP201   0.0000
@<TRIPOS>BOND
     1    1    2      ar
     2    1    3      ar
     3    1    4      ar
     4    1    5       1
     5    5    6       1
     6    6    7      ar
     7    6    8      ar
     8    6    9       1
     9    9   10       1
    10   10   11       1
    11   11   12       1
    12   11   13       1
    13   12   17       1
    14   13   14       1
    15   13   15       1
    16   15   16       1
    17   15   17       1
    18   17   18       1
    19   18   19       1
    20   18   28       1
    21   19   20       2
    22   20   21       1
    23   21   22       1
    24   21   28       2
    25   22   23       2
    26   22   24       1
    27   24   25       1
    28   25   26       1
    29   25   27       2
    30   27   28       1
    31   24   40       1
    32   26   39       1
    33   26   38       1
    34   10   29       1
    35   10   30       1
    36   11   31       1
    37   13   32       1
    38   14   33       1
    39   15   34       1
    40   16   35       1
    41   17   36       1
    42   19   37       1
@<TRIPOS>SUBSTRUCTURE
     1 GDP201      1 GROUP             4 A     GDP     0 **** GDP A 201
