@<TRIPOS>MOLECULE
3rfx_NAD_1_ligand
   39    41     1     0     0
SMALL
NO_CHARGES


@<TRIPOS>ATOM
     1 PA          72.6790    41.9470    16.9680 P.3          1 NAD400   0.0000
     2 O1A         74.2930    41.3910    16.7310 O.co2        1 NAD400   0.0000
     3 O2A         72.1610    42.2120    18.5600 O.co2        1 NAD400  -1.0000
     4 O5B         71.4790    41.4600    15.8240 O.3          1 NAD400   0.0000
     5 C5B         71.9690    40.8480    14.6840 C.3          1 NAD400   0.0000
     6 C4B         71.1350    39.6700    14.1760 C.3          1 NAD400   0.0000
     7 O4B         71.4540    39.2880    12.8460 O.3          1 NAD400   0.0000
     8 C3B         71.2150    38.4880    15.0380 C.3          1 NAD400   0.0000
     9 O3B         70.1180    38.1670    15.8170 O.3          1 NAD400   0.0000
    10 C2B         71.9420    37.4770    14.2540 C.3          1 NAD400   0.0000
    11 O2B         71.6970    36.1100    14.5580 O.3          1 NAD400   0.0000
    12 C1B         71.6460    37.8880    12.8540 C.3          1 NAD400   0.0000
    13 N9A         72.5710    37.4180    11.8590 N.pl3        1 NAD400   0.0000
    14 C8A         73.9810    37.4630    11.9100 C.2          1 NAD400   0.0000
    15 N7A         74.4510    36.8110    10.7920 N.2          1 NAD400   0.0000
    16 C5A         73.3370    36.3360    10.0660 C.ar         1 NAD400   0.0000
    17 C6A         73.2380    35.6130     8.8640 C.ar         1 NAD400   0.0000
    18 N6A         74.4190    35.2110     8.1820 N.pl3        1 NAD400   0.0000
    19 N1A         71.9870    35.2840     8.3730 N.ar         1 NAD400   0.0000
    20 C2A         70.8380    35.6530     9.0400 C.ar         1 NAD400   0.0000
    21 N3A         70.9310    36.3980    10.2620 N.ar         1 NAD400   0.0000
    22 C4A         72.1780    36.7140    10.7390 C.ar         1 NAD400   0.0000
    23 O3          72.8550    43.3820    16.3870 O.3          1 NAD400   0.0000
    24 PN          72.0540    44.6740    16.8610 P.3          1 NAD400   0.0000
    25 O1N         70.6250    44.3240    17.2360 O.co2        1 NAD400   0.0000
    26 O2N         72.7360    45.3360    18.0520 O.co2        1 NAD400  -1.0000
    27 O5D         72.0290    45.6820    15.6440 O.co2        1 NAD400  -1.0000
    28 H5B1        72.8903    40.5136    14.8825 H            1 NAD400   0.0000
    29 H5B2        72.0126    41.5339    13.9576 H            1 NAD400   0.0000
    30 H4B         70.1801    39.9668    14.1742 H            1 NAD400   0.0000
    31 H3B         71.8928    38.7623    15.7201 H            1 NAD400   0.0000
    32 H5          69.3275    38.0012    15.2274 H            1 NAD400   0.0000
    33 H2B         72.9174    37.6382    14.4045 H            1 NAD400   0.0000
    34 H7          70.7280    35.9060    14.4186 H            1 NAD400   0.0000
    35 H1B         70.7605    37.4834    12.6254 H            1 NAD400   0.0000
    36 H8A         74.5353    37.8891    12.6250 H            1 NAD400   0.0000
    37 H6A1        74.3521    34.6967     7.3270 H            1 NAD400   0.0000
    38 H6A2        75.3165    35.4425     8.5573 H            1 NAD400   0.0000
    39 H2A         69.9424    35.4019     8.6727 H            1 NAD400   0.0000
@<TRIPOS>BOND
     1    1    2      ar
     2    1    3      ar
     3    1    4       1
     4    1   23       1
     5    4    5       1
     6    5    6       1
     7    6    7       1
     8    6    8       1
     9    7   12       1
    10    8    9       1
    11    8   10       1
    12   10   11       1
    13   10   12       1
    14   12   13       1
    15   13   14       1
    16   13   22       1
    17   14   15       2
    18   15   16       1
    19   16   17      ar
    20   16   22      ar
    21   17   18       1
    22   17   19      ar
    23   19   20      ar
    24   20   21      ar
    25   21   22      ar
    26   23   24       1
    27   24   25      ar
    28   24   26      ar
    29   24   27      ar
    30   20   39       1
    31    5   28       1
    32    5   29       1
    33    6   30       1
    34    8   31       1
    35    9   32       1
    36   10   33       1
    37   11   34       1
    38   12   35       1
    39   14   36       1
    40   18   37       1
    41   18   38       1
@<TRIPOS>SUBSTRUCTURE
     1 NAD400      1 GROUP             4 A     NAD     0 **** NAD A 400
