@<TRIPOS>MOLECULE
3n2e_OSA_2_ligand
   46    49     1     0     0
SMALL
NO_CHARGES


@<TRIPOS>ATOM
     1 CAA         70.7000     7.0310    13.9970 C.ar         1 OSA1001   0.0000
     2 CAB         69.7370     7.7610    13.2860 C.ar         1 OSA1001   0.0000
     3 CAC         70.1840     8.8500    12.5140 C.ar         1 OSA1001   0.0000
     4 CAD         71.5390     9.2230    12.4370 C.ar         1 OSA1001   0.0000
     5 CAE         72.4850     8.4970    13.1510 C.ar         1 OSA1001   0.0000
     6 CAF         72.0630     7.4190    13.9240 C.ar         1 OSA1001   0.0000
     7 NAG         72.9860     6.7440    14.6030 N.pl3        1 OSA1001   0.0000
     8 CAH         71.9420    10.3270    11.6600 C.ar         1 OSA1001   0.0000
     9 CAI         71.0000    11.0460    10.9600 C.ar         1 OSA1001   0.0000
    10 CAJ         69.6520    10.6680    11.0030 C.ar         1 OSA1001   0.0000
    11 CAK         69.2700     9.5700    11.8000 C.ar         1 OSA1001   0.0000
    12 OAL         68.0200     9.1440    11.8900 O.3          1 OSA1001   0.0000
    13 NAM         68.7510    11.4070    10.3230 N.2          1 OSA1001   0.0000
    14 NAN         67.5430    11.3590    10.5830 N.2          1 OSA1001   0.0000
    15 CAO         66.6400    12.1630     9.9970 C.ar         1 OSA1001   0.0000
    16 CAP         65.3700    12.1470    10.5620 C.ar         1 OSA1001   0.0000
    17 CAQ         64.3450    12.9540    10.0620 C.ar         1 OSA1001   0.0000
    18 CAR         64.6120    13.8080     9.0050 C.ar         1 OSA1001   0.0000
    19 CAS         65.8990    13.8630     8.4330 C.ar         1 OSA1001   0.0000
    20 CAT         66.9300    13.0620     8.9360 C.ar         1 OSA1001   0.0000
    21 CAU         66.1150    14.7200     7.3640 C.ar         1 OSA1001   0.0000
    22 CAV         65.0670    15.5270     6.9080 C.ar         1 OSA1001   0.0000
    23 CAW         63.7860    15.4650     7.4680 C.ar         1 OSA1001   0.0000
    24 CAX         63.5600    14.5880     8.5320 C.ar         1 OSA1001   0.0000
    25 OAY         62.3470    14.4690     9.1560 O.3          1 OSA1001   0.0000
    26 SAZ         65.3870    16.6300     5.5740 S.o2         1 OSA1001   0.0000
    27 OBA         64.0610    17.2810     5.1860 O.co2        1 OSA1001   0.0000
    28 OBB         66.4760    17.6190     5.9570 O.co2        1 OSA1001   0.0000
    29 OBC         65.9440    15.9050     4.3680 O.co2        1 OSA1001  -1.0000
    30 SBD         71.4860    12.3580     9.9890 S.o2         1 OSA1001   0.0000
    31 OBE         73.0060    12.4390     9.9310 O.co2        1 OSA1001   0.0000
    32 OBF         70.8190    12.1830     8.6550 O.co2        1 OSA1001   0.0000
    33 OBG         71.0210    13.6710    10.4610 O.co2        1 OSA1001  -1.0000
    34 HAA         70.4287     6.2438    14.5507 H            1 OSA1001   0.0000
    35 HAB         68.7680     7.5170    13.3258 H            1 OSA1001   0.0000
    36 HAE         73.4529     8.7450    13.1101 H            1 OSA1001   0.0000
    37 HAG1        73.9461     7.0188    14.5504 H            1 OSA1001   0.0000
    38 HAG2        72.7200     5.9616    15.1662 H            1 OSA1001   0.0000
    39 HAH         72.9068    10.5867    11.6173 H            1 OSA1001   0.0000
    40 HAL         67.2928     9.6198    11.3953 H            1 OSA1001   0.0000
    41 HAP         65.1867    11.5469    11.3406 H            1 OSA1001   0.0000
    42 HAQ         63.4295    12.9154    10.4626 H            1 OSA1001   0.0000
    43 HAT         67.8531    13.1212     8.5560 H            1 OSA1001   0.0000
    44 HAU         67.0117    14.7607     6.9232 H            1 OSA1001   0.0000
    45 HAW         63.0466    16.0374     7.1135 H            1 OSA1001   0.0000
    46 HAY         61.5685    15.0134     8.8437 H            1 OSA1001   0.0000
@<TRIPOS>BOND
     1    1    2      ar
     2    1    6      ar
     3    2    3      ar
     4    3    4      ar
     5    3   11      ar
     6    4    5      ar
     7    4    8      ar
     8    5    6      ar
     9    6    7       1
    10    8    9      ar
    11    9   10      ar
    12    9   30       1
    13   10   11      ar
    14   10   13       1
    15   11   12       1
    16   13   14       2
    17   14   15       1
    18   15   16      ar
    19   15   20      ar
    20   16   17      ar
    21   17   18      ar
    22   18   19      ar
    23   18   24      ar
    24   19   20      ar
    25   19   21      ar
    26   21   22      ar
    27   22   23      ar
    28   22   26       1
    29   23   24      ar
    30   24   25       1
    31   26   27      ar
    32   26   28      ar
    33   26   29      ar
    34   30   31      ar
    35   30   32      ar
    36   30   33      ar
    37    1   34       1
    38    2   35       1
    39    5   36       1
    40    7   37       1
    41    7   38       1
    42    8   39       1
    43   12   40       1
    44   16   41       1
    45   17   42       1
    46   20   43       1
    47   21   44       1
    48   23   45       1
    49   25   46       1
@<TRIPOS>SUBSTRUCTURE
     1 OSA1001     1 GROUP             4 B     OSA     0 **** OSA B1001
