@<TRIPOS>MOLECULE
3tfj_THG_1_ligand
   53    55     1     0     0
SMALL
NO_CHARGES


@<TRIPOS>ATOM
     1 N3          12.8610     6.4830    12.4410 N.pl3        1 THG370   0.0000
     2 C2          11.8070     5.9520    11.7990 C.2          1 THG370   0.0000
     3 N1          11.1920     4.8170    12.2010 N.2          1 THG370   0.0000
     4 C8A         11.4920     4.1200    13.3330 C.2          1 THG370   0.0000
     5 C4A         12.6700     4.5630    14.0610 C.2          1 THG370   0.0000
     6 C4          13.3110     5.8120    13.5620 C.2          1 THG370   0.0000
     7 N8          10.8610     3.0040    13.6650 N.pl3        1 THG370   0.0000
     8 C7          11.6280     2.0250    14.4800 C.3          1 THG370   0.0000
     9 C6          12.3270     2.7250    15.6430 C.3          1 THG370   0.0000
    10 N5          13.0750     3.8900    15.1820 N.pl3        1 THG370   0.0000
    11 C9          11.2320     3.1950    16.5940 C.3          1 THG370   0.0000
    12 N10         11.8360     3.8920    17.7310 N.pl3        1 THG370   0.0000
    13 C4'         12.0440     5.2620    17.7480 C.ar         1 THG370   0.0000
    14 C3'         12.5940     5.7990    18.9000 C.ar         1 THG370   0.0000
    15 C2'         12.8190     7.1470    19.0140 C.ar         1 THG370   0.0000
    16 C1'         12.4950     7.9450    17.9280 C.ar         1 THG370   0.0000
    17 C6'         11.9410     7.4400    16.7750 C.ar         1 THG370   0.0000
    18 C5'         11.7110     6.0740    16.6830 C.ar         1 THG370   0.0000
    19 C11         12.7320     9.3850    18.0440 C.2          1 THG370   0.0000
    20 N           12.2890     9.8750    19.2070 N.am         1 THG370   0.0000
    21 CA          12.2950    11.2490    19.6290 C.3          1 THG370   0.0000
    22 C           12.9970    11.4290    20.9760 C.2          1 THG370   0.0000
    23 OX2         13.7400    12.4370    21.2210 O.co2        1 THG370   0.0000
    24 OX1         12.7890    10.5420    21.8480 O.co2        1 THG370  -1.0000
    25 CB          10.8100    11.5450    19.7870 C.3          1 THG370   0.0000
    26 CG          10.4540    12.9160    19.2580 C.3          1 THG370   0.0000
    27 CD           9.0270    13.1430    19.6530 C.2          1 THG370   0.0000
    28 OE1          8.2960    13.7760    18.8770 O.co2        1 THG370   0.0000
    29 OE2          8.6300    12.6930    20.7430 O.co2        1 THG370  -1.0000
    30 O11         13.2830     9.9540    17.0970 O.2          1 THG370   0.0000
    31 O4          14.2880     6.2400    14.2080 O.2          1 THG370   0.0000
    32 N2          11.3510     6.5300    10.6990 N.pl3        1 THG370   0.0000
    33 H1          13.2990     7.3238    12.1228 H            1 THG370   0.0000
    34 H2           9.9179     2.8289    13.3823 H            1 THG370   0.0000
    35 H3          12.3141     1.5825    13.9025 H            1 THG370   0.0000
    36 H4          11.0008     1.3348    14.8409 H            1 THG370   0.0000
    37 H5          12.9384     2.0869    16.1110 H            1 THG370   0.0000
    38 H6          13.8832     4.1966    15.6848 H            1 THG370   0.0000
    39 H7          10.7158     2.4047    16.9240 H            1 THG370   0.0000
    40 H8          10.6161     3.8174    16.1110 H            1 THG370   0.0000
    41 H9          12.1103     3.3564    18.5297 H            1 THG370   0.0000
    42 H3'         12.8308     5.1944    19.6605 H            1 THG370   0.0000
    43 H2'         13.2027     7.5397    19.8498 H            1 THG370   0.0000
    44 H6'         11.7076     8.0469    16.0152 H            1 THG370   0.0000
    45 H5'         11.3089     5.6832    15.8550 H            1 THG370   0.0000
    46 H14         11.9121     9.2124    19.8543 H            1 THG370   0.0000
    47 HA          12.7046    11.8360    18.9307 H            1 THG370   0.0000
    48 HB1         10.5720    11.5001    20.7572 H            1 THG370   0.0000
    49 HB2         10.2870    10.8574    19.2833 H            1 THG370   0.0000
    50 HG1         10.5489    12.9415    18.2628 H            1 THG370   0.0000
    51 HG2         11.0442    13.6119    19.6671 H            1 THG370   0.0000
    52 H20         10.5668     6.1391    10.2171 H            1 THG370   0.0000
    53 H21         11.7907     7.3575    10.3499 H            1 THG370   0.0000
@<TRIPOS>BOND
     1    1    2       1
     2    1    6       1
     3    2    3       2
     4    2   32       1
     5    3    4       1
     6    4    5       2
     7    4    7       1
     8    5    6       1
     9    5   10       1
    10    6   31       2
    11    7    8       1
    12    8    9       1
    13    9   10       1
    14    9   11       1
    15   11   12       1
    16   12   13       1
    17   13   14      ar
    18   13   18      ar
    19   14   15      ar
    20   15   16      ar
    21   16   17      ar
    22   16   19       1
    23   17   18      ar
    24   19   20      am
    25   19   30       2
    26   20   21       1
    27   21   22       1
    28   21   25       1
    29   22   23      ar
    30   22   24      ar
    31   25   26       1
    32   26   27       1
    33   27   28      ar
    34   27   29      ar
    35    1   33       1
    36    7   34       1
    37    8   35       1
    38    8   36       1
    39    9   37       1
    40   10   38       1
    41   11   39       1
    42   11   40       1
    43   12   41       1
    44   14   42       1
    45   15   43       1
    46   17   44       1
    47   18   45       1
    48   20   46       1
    49   21   47       1
    50   32   53       1
    51   25   48       1
    52   25   49       1
    53   26   50       1
    54   26   51       1
    55   32   52       1
@<TRIPOS>SUBSTRUCTURE
     1 THG370      1 GROUP             4 A     THG     0 **** THG A 370
