@<TRIPOS>MOLECULE
1pkf_EPD_1_ligand
   75    76     1     0     0
SMALL
NO_CHARGES


@<TRIPOS>ATOM
     1 C51          9.8770    38.8450    17.0040 C.3          1 EPD450   0.0000
     2 C5           8.4650    39.3670    17.1630 C.2          1 EPD450   0.0000
     3 C4           7.5840    38.4710    17.5620 C.2          1 EPD450   0.0000
     4 C3           6.1940    38.8430    17.9840 C.3          1 EPD450   0.0000
     5 C2           5.1190    38.0610    17.1600 C.3          1 EPD450   0.0000
     6 C20          3.6170    38.3950    17.5970 C.2          1 EPD450   0.0000
     7 C21          2.5170    38.0170    16.6140 C.3          1 EPD450   0.0000
     8 C22          3.4770    39.0460    18.7680 C.2          1 EPD450   0.0000
     9 C23          2.2310    39.4570    19.3070 C.2          1 EPD450   0.0000
    10 C24          1.8950    39.9450    20.4580 C.2          1 EPD450   0.0000
    11 S1           0.1960    40.3190    20.5710 S.3          1 EPD450   0.0000
    12 C25          0.0760    39.7760    18.9370 C.2          1 EPD450   0.0000
    13 C27         -1.2880    39.8210    18.3090 C.3          1 EPD450   0.0000
    14 N26          1.1340    39.3860    18.3930 N.2          1 EPD450   0.0000
    15 C6           8.2070    40.8740    17.3890 C.3          1 EPD450   0.0000
    16 C7           8.7970    41.7700    16.3080 C.3          1 EPD450   0.0000
    17 C8           7.9280    41.6370    15.0440 C.3          1 EPD450   0.0000
    18 C9           6.8760    42.6040    14.5620 C.3          1 EPD450   0.0000
    19 C91          5.5730    42.7620    15.2390 C.3          1 EPD450   0.0000
    20 C10          6.4790    41.8110    13.2160 C.3          1 EPD450   0.0000
    21 O10          7.7120    41.7730    12.3970 O.3          1 EPD450   0.0000
    22 C11          5.1660    42.3050    12.4820 C.3          1 EPD450   0.0000
    23 C28          5.2450    43.7150    11.9170 C.3          1 EPD450   0.0000
    24 C12          4.7770    41.3620    11.3450 C.2          1 EPD450   0.0000
    25 O12          5.4670    41.4750    10.3210 O.2          1 EPD450   0.0000
    26 C13          3.6100    40.3800    11.6060 C.3          1 EPD450   0.0000
    27 C30          2.3030    41.0550    11.9450 C.3          1 EPD450   0.0000
    28 C29          3.4590    39.3370    10.4970 C.3          1 EPD450   0.0000
    29 C14          3.9140    39.5660    12.9630 C.3          1 EPD450   0.0000
    30 O14          2.8010    38.7970    13.4340 O.3          1 EPD450   0.0000
    31 C15          4.9930    38.5220    12.8860 C.3          1 EPD450   0.0000
    32 C16          5.2650    37.9150    14.3070 C.2          1 EPD450   0.0000
    33 O16          5.8750    36.8730    14.4020 O.2          1 EPD450   0.0000
    34 O1           4.7990    38.6050    15.5110 O.3          1 EPD450   0.0000
    35 H1          10.4745    39.5871    16.7004 H            1 EPD450   0.0000
    36 H2          10.2028    38.4924    17.8812 H            1 EPD450   0.0000
    37 H3           9.8864    38.1106    16.3253 H            1 EPD450   0.0000
    38 H4           7.8526    37.5080    17.5840 H            1 EPD450   0.0000
    39 H5           6.0625    39.8241    17.8421 H            1 EPD450   0.0000
    40 H6           6.0800    38.6283    18.9540 H            1 EPD450   0.0000
    41 H7           5.2911    37.0763    17.1870 H            1 EPD450   0.0000
    42 H8           1.6281    38.2727    16.9940 H            1 EPD450   0.0000
    43 H9           2.6615    38.4997    15.7502 H            1 EPD450   0.0000
    44 H10          2.5391    37.0304    16.4523 H            1 EPD450   0.0000
    45 H11          4.3042    39.2527    19.2906 H            1 EPD450   0.0000
    46 H12          2.5431    40.0922    21.2052 H            1 EPD450   0.0000
    47 H13         -1.2334    39.4848    17.3688 H            1 EPD450   0.0000
    48 H14         -1.9154    39.2450    18.8331 H            1 EPD450   0.0000
    49 H15         -1.6232    40.7632    18.3071 H            1 EPD450   0.0000
    50 H16          8.6085    41.1339    18.2672 H            1 EPD450   0.0000
    51 H17          7.2186    41.0235    17.4171 H            1 EPD450   0.0000
    52 H18          9.7339    41.4845    16.1060 H            1 EPD450   0.0000
    53 H19          8.7979    42.7203    16.6195 H            1 EPD450   0.0000
    54 H20          7.4482    40.7662    15.1513 H            1 EPD450   0.0000
    55 H21          8.5799    41.5676    14.2889 H            1 EPD450   0.0000
    56 H22          7.2787    43.4940    14.3479 H            1 EPD450   0.0000
    57 H23          5.0292    43.4503    14.7589 H            1 EPD450   0.0000
    58 H24          5.0860    41.8886    15.2327 H            1 EPD450   0.0000
    59 H25          5.7215    43.0540    16.1838 H            1 EPD450   0.0000
    60 H26          6.3021    40.8667    13.4934 H            1 EPD450   0.0000
    61 H27          8.2659    42.5828    12.5906 H            1 EPD450   0.0000
    62 H28          4.4236    42.2907    13.1518 H            1 EPD450   0.0000
    63 H29          4.3789    43.9453    11.4733 H            1 EPD450   0.0000
    64 H30          5.4219    44.3619    12.6588 H            1 EPD450   0.0000
    65 H31          5.9861    43.7648    11.2475 H            1 EPD450   0.0000
    66 H32          1.5997    40.3611    12.0996 H            1 EPD450   0.0000
    67 H33          2.4165    41.6047    12.7726 H            1 EPD450   0.0000
    68 H34          2.0269    41.6464    11.1873 H            1 EPD450   0.0000
    69 H35          2.6945    38.7295    10.7126 H            1 EPD450   0.0000
    70 H36          3.2832    39.7982     9.6273 H            1 EPD450   0.0000
    71 H37          4.3006    38.8015    10.4262 H            1 EPD450   0.0000
    72 H38          4.1640    40.2235    13.6737 H            1 EPD450   0.0000
    73 H39          2.5393    38.1285    12.7379 H            1 EPD450   0.0000
    74 H40          5.8327    38.9402    12.5396 H            1 EPD450   0.0000
    75 H41          4.7032    37.7931    12.2658 H            1 EPD450   0.0000
@<TRIPOS>BOND
     1    1    2       1
     2    2    3       2
     3    2   15       1
     4    3    4       1
     5    4    5       1
     6    5    6       1
     7    5   34       1
     8    6    7       1
     9    6    8       2
    10    8    9       1
    11    9   10       2
    12    9   14       1
    13   10   11       1
    14   11   12       1
    15   12   13       1
    16   12   14       2
    17   15   16       1
    18   16   17       1
    19   17   18       1
    20   18   19       1
    21   18   20       1
    22   20   21       1
    23   20   22       1
    24   22   23       1
    25   22   24       1
    26   24   25       2
    27   24   26       1
    28   26   27       1
    29   26   28       1
    30   26   29       1
    31   29   30       1
    32   29   31       1
    33   31   32       1
    34   32   33       2
    35   32   34       1
    36    1   35       1
    37    1   36       1
    38    1   37       1
    39    3   38       1
    40    4   39       1
    41    4   40       1
    42    5   41       1
    43    7   42       1
    44    7   43       1
    45    7   44       1
    46    8   45       1
    47   10   46       1
    48   13   47       1
    49   13   48       1
    50   13   49       1
    51   15   50       1
    52   15   51       1
    53   16   52       1
    54   16   53       1
    55   17   54       1
    56   17   55       1
    57   18   56       1
    58   19   57       1
    59   19   58       1
    60   19   59       1
    61   20   60       1
    62   21   61       1
    63   22   62       1
    64   23   63       1
    65   23   64       1
    66   23   65       1
    67   27   66       1
    68   27   67       1
    69   27   68       1
    70   28   69       1
    71   28   70       1
    72   28   71       1
    73   29   72       1
    74   30   73       1
    75   31   74       1
    76   31   75       1
@<TRIPOS>SUBSTRUCTURE
     1 EPD450      1 GROUP             4 A     EPD     0 **** EPD A 450
