@<TRIPOS>MOLECULE
1gvh_FAD_1_ligand
   84    89     1     0     0
SMALL
NO_CHARGES


@<TRIPOS>ATOM
     1 PA          58.3860    28.6340   114.5600 P.3          1 FAD1397   0.0000
     2 O1A         57.5760    27.4150   114.4720 O.co2        1 FAD1397   0.0000
     3 O2A         58.3000    29.5690   115.6940 O.co2        1 FAD1397  -1.0000
     4 O5B         58.2970    29.4970   113.2800 O.3          1 FAD1397   0.0000
     5 C5B         57.8480    29.0410   112.0190 C.3          1 FAD1397   0.0000
     6 C4B         58.2920    30.1820   111.1280 C.3          1 FAD1397   0.0000
     7 O4B         58.0800    30.0050   109.7290 O.3          1 FAD1397   0.0000
     8 C3B         57.9030    31.6820   111.4080 C.3          1 FAD1397   0.0000
     9 O3B         59.1370    32.4200   111.5700 O.3          1 FAD1397   0.0000
    10 C2B         57.1340    32.0560   110.2110 C.3          1 FAD1397   0.0000
    11 O2B         57.1340    33.4030   109.8500 O.3          1 FAD1397   0.0000
    12 C1B         57.8010    31.2350   109.1380 C.3          1 FAD1397   0.0000
    13 N9A         57.1620    30.9480   107.8960 N.pl3        1 FAD1397   0.0000
    14 C8A         57.5990    31.3250   106.6150 C.2          1 FAD1397   0.0000
    15 N7A         56.8220    30.9440   105.6560 N.2          1 FAD1397   0.0000
    16 C5A         55.7890    30.2560   106.2630 C.ar         1 FAD1397   0.0000
    17 C6A         54.6490    29.6170   105.7490 C.ar         1 FAD1397   0.0000
    18 N6A         54.3750    29.5930   104.4370 N.pl3        1 FAD1397   0.0000
    19 N1A         53.7740    29.0240   106.6410 N.ar         1 FAD1397   0.0000
    20 C2A         54.0380    29.0280   107.9820 C.ar         1 FAD1397   0.0000
    21 N3A         55.1530    29.6670   108.5920 N.ar         1 FAD1397   0.0000
    22 C4A         55.9730    30.2520   107.5660 C.ar         1 FAD1397   0.0000
    23 N1          63.4780    23.3290   107.8890 N.2          1 FAD1397   0.0000
    24 C2          64.8050    23.4880   107.5520 C.2          1 FAD1397   0.0000
    25 O2          65.3890    24.5590   107.7230 O.2          1 FAD1397   0.0000
    26 N3          65.4820    22.4230   106.9850 N.pl3        1 FAD1397   0.0000
    27 C4          64.9430    21.1440   106.7200 C.2          1 FAD1397   0.0000
    28 O4          65.6780    20.2380   106.2030 O.2          1 FAD1397   0.0000
    29 C4X         63.6210    21.0030   107.0650 C.2          1 FAD1397   0.0000
    30 N5          63.0170    19.7310   106.7910 N.2          1 FAD1397   0.0000
    31 C5X         61.6320    19.5880   107.1280 C.ar         1 FAD1397   0.0000
    32 C6          60.9550    18.3680   106.8780 C.ar         1 FAD1397   0.0000
    33 C7          59.5860    18.1470   107.2050 C.ar         1 FAD1397   0.0000
    34 C7M         58.9520    16.8020   106.8680 C.3          1 FAD1397   0.0000
    35 C8          58.8460    19.2200   107.8110 C.ar         1 FAD1397   0.0000
    36 C8M         57.3850    19.0800   108.2180 C.3          1 FAD1397   0.0000
    37 C9          59.4680    20.4380   108.0940 C.ar         1 FAD1397   0.0000
    38 C9A         60.8390    20.6580   107.7550 C.ar         1 FAD1397   0.0000
    39 N10         61.5820    21.9190   107.9750 N.pl3        1 FAD1397   0.0000
    40 C10         62.9060    22.0900   107.6280 C.2          1 FAD1397   0.0000
    41 C1'         60.8480    22.9540   108.5540 C.3          1 FAD1397   0.0000
    42 C2'         61.1390    23.1030   109.9860 C.3          1 FAD1397   0.0000
    43 O2'         60.8350    21.8410   110.6610 O.3          1 FAD1397   0.0000
    44 C3'         60.3810    24.1180   110.6950 C.3          1 FAD1397   0.0000
    45 O3'         59.2660    24.7770   110.1440 O.3          1 FAD1397   0.0000
    46 C4'         61.2390    25.1120   111.3780 C.3          1 FAD1397   0.0000
    47 O4'         62.4590    24.6980   112.0090 O.3          1 FAD1397   0.0000
    48 C5'         60.4760    26.1370   112.0870 C.3          1 FAD1397   0.0000
    49 O5'         61.2770    26.5120   113.1220 O.3          1 FAD1397   0.0000
    50 P           61.2030    27.6430   114.0810 P.3          1 FAD1397   0.0000
    51 O1P         62.0030    27.2760   115.1860 O.co2        1 FAD1397   0.0000
    52 O2P         61.8790    28.7200   113.3380 O.co2        1 FAD1397  -1.0000
    53 O3P         59.8600    28.4180   114.1680 O.3          1 FAD1397   0.0000
    54 H5B1        56.8548    28.9261   112.0018 H            1 FAD1397   0.0000
    55 H5B2        58.2876    28.1806   111.7612 H            1 FAD1397   0.0000
    56 H4B         59.2880    30.1766   111.2176 H            1 FAD1397   0.0000
    57 H3B         57.3370    31.7537   112.2293 H            1 FAD1397   0.0000
    58 H5          58.9292    33.3814   111.7502 H            1 FAD1397   0.0000
    59 H2B         56.1893    31.7466   110.3195 H            1 FAD1397   0.0000
    60 H7          56.5802    33.5275   109.0267 H            1 FAD1397   0.0000
    61 H1B         58.6763    31.6712   108.9294 H            1 FAD1397   0.0000
    62 H8A         58.4395    31.8438   106.4590 H            1 FAD1397   0.0000
    63 H6A1        53.5537    29.1283   104.1062 H            1 FAD1397   0.0000
    64 H6A2        54.9919    30.0398   103.7891 H            1 FAD1397   0.0000
    65 H2A         53.3985    28.5448   108.5800 H            1 FAD1397   0.0000
    66 H13         66.4401    22.5719   106.7404 H            1 FAD1397   0.0000
    67 H14         61.4655    17.6226   106.4492 H            1 FAD1397   0.0000
    68 H7M1        57.9949    16.8027   107.1576 H            1 FAD1397   0.0000
    69 H7M2        59.0015    16.6481   105.8812 H            1 FAD1397   0.0000
    70 H7M3        59.4438    16.0730   107.3442 H            1 FAD1397   0.0000
    71 H8M1        57.0665    19.9395   108.6178 H            1 FAD1397   0.0000
    72 H8M2        56.8339    18.8627   107.4124 H            1 FAD1397   0.0000
    73 H8M3        57.2953    18.3459   108.8911 H            1 FAD1397   0.0000
    74 H21         58.9472    21.1660   108.5398 H            1 FAD1397   0.0000
    75 H1'1        59.8734    22.7605   108.4413 H            1 FAD1397   0.0000
    76 H1'2        61.0740    23.8095   108.0882 H            1 FAD1397   0.0000
    77 H2'         62.1138    23.2973   110.0955 H            1 FAD1397   0.0000
    78 H25         61.3993    21.1117   110.2741 H            1 FAD1397   0.0000
    79 H3'         59.9831    23.6068   111.4568 H            1 FAD1397   0.0000
    80 H27         58.6338    25.0312   110.8759 H            1 FAD1397   0.0000
    81 H4'         61.5895    25.6336   110.6002 H            1 FAD1397   0.0000
    82 H29         62.9089    25.4920   112.4179 H            1 FAD1397   0.0000
    83 H5'1        59.6134    25.7623   112.4268 H            1 FAD1397   0.0000
    84 H5'2        60.2882    26.9147   111.4870 H            1 FAD1397   0.0000
@<TRIPOS>BOND
     1    1    2      ar
     2    1    3      ar
     3    1    4       1
     4    1   53       1
     5    4    5       1
     6    5    6       1
     7    6    7       1
     8    6    8       1
     9    7   12       1
    10    8    9       1
    11    8   10       1
    12   10   11       1
    13   10   12       1
    14   12   13       1
    15   13   14       1
    16   13   22       1
    17   14   15       2
    18   15   16       1
    19   16   17      ar
    20   16   22      ar
    21   17   18       1
    22   17   19      ar
    23   19   20      ar
    24   20   21      ar
    25   21   22      ar
    26   23   24       1
    27   23   40       2
    28   24   25       2
    29   24   26       1
    30   26   27       1
    31   27   28       2
    32   27   29       1
    33   29   30       2
    34   29   40       1
    35   30   31       1
    36   31   32      ar
    37   31   38      ar
    38   32   33      ar
    39   33   34       1
    40   33   35      ar
    41   35   36       1
    42   35   37      ar
    43   37   38      ar
    44   38   39       1
    45   39   40       1
    46   39   41       1
    47   41   42       1
    48   42   43       1
    49   42   44       1
    50   44   45       1
    51   44   46       1
    52   46   47       1
    53   46   48       1
    54   48   49       1
    55   49   50       1
    56   50   51      ar
    57   50   52      ar
    58   50   53       1
    59   48   84       1
    60    5   54       1
    61    5   55       1
    62    6   56       1
    63    8   57       1
    64    9   58       1
    65   10   59       1
    66   11   60       1
    67   12   61       1
    68   14   62       1
    69   18   63       1
    70   18   64       1
    71   20   65       1
    72   26   66       1
    73   32   67       1
    74   34   68       1
    75   34   69       1
    76   34   70       1
    77   36   71       1
    78   36   72       1
    79   36   73       1
    80   37   74       1
    81   41   75       1
    82   41   76       1
    83   42   77       1
    84   43   78       1
    85   44   79       1
    86   45   80       1
    87   46   81       1
    88   47   82       1
    89   48   83       1
@<TRIPOS>SUBSTRUCTURE
     1 FAD1397     1 GROUP             4 A     FAD     0 **** FAD A1397
