@<TRIPOS>MOLECULE
3rqw_ACH_2_ligand
   26    25     1     0     0
SMALL
NO_CHARGES


@<TRIPOS>ATOM
     1 N1         -84.9120   -62.7860   -61.0810 N.4          1 ACH323   1.0000
     2 C2         -86.3040   -62.9360   -61.5660 C.3          1 ACH323   0.0000
     3 C3         -86.8790   -64.3510   -61.5070 C.3          1 ACH323   0.0000
     4 O4         -86.6470   -64.9190   -60.2190 O.3          1 ACH323   0.0000
     5 C5         -87.6640   -65.8040   -59.6860 C.2          1 ACH323   0.0000
     6 O7         -88.7000   -65.9060   -60.3340 O.2          1 ACH323   0.0000
     7 C6         -87.4940   -66.3830   -58.3100 C.3          1 ACH323   0.0000
     8 C8         -84.4190   -61.5040   -61.6260 C.3          1 ACH323   0.0000
     9 C9         -83.9960   -63.8330   -61.5740 C.3          1 ACH323   0.0000
    10 C10        -84.8750   -62.7400   -59.6010 C.3          1 ACH323   0.0000
    11 H1         -86.3316   -62.6329   -62.5186 H            1 ACH323   0.0000
    12 H2         -86.8880   -62.3439   -61.0108 H            1 ACH323   0.0000
    13 H3         -86.4373   -64.9172   -62.2030 H            1 ACH323   0.0000
    14 H4         -87.8631   -64.3160   -61.6811 H            1 ACH323   0.0000
    15 H5         -88.2767   -66.9672   -58.0951 H            1 ACH323   0.0000
    16 H6         -86.6545   -66.9254   -58.2780 H            1 ACH323   0.0000
    17 H7         -87.4377   -65.6418   -57.6411 H            1 ACH323   0.0000
    18 H8         -83.4769   -61.3544   -61.3258 H            1 ACH323   0.0000
    19 H9         -84.4499   -61.5326   -62.6251 H            1 ACH323   0.0000
    20 H10        -84.9966   -60.7574   -61.2959 H            1 ACH323   0.0000
    21 H11        -83.0786   -63.6717   -61.2101 H            1 ACH323   0.0000
    22 H12        -84.3213   -64.7293   -61.2727 H            1 ACH323   0.0000
    23 H13        -83.9675   -63.8074   -62.5733 H            1 ACH323   0.0000
    24 H14        -83.9286   -62.6387   -59.2942 H            1 ACH323   0.0000
    25 H15        -85.4151   -61.9628   -59.2781 H            1 ACH323   0.0000
    26 H16        -85.2563   -63.5874   -59.2315 H            1 ACH323   0.0000
@<TRIPOS>BOND
     1    1    2       1
     2    1    8       1
     3    1    9       1
     4    1   10       1
     5    2    3       1
     6    3    4       1
     7    4    5       1
     8    5    6       2
     9    5    7       1
    10    2   11       1
    11    2   12       1
    12    3   13       1
    13    3   14       1
    14    7   15       1
    15    7   16       1
    16    7   17       1
    17    8   18       1
    18    8   19       1
    19    8   20       1
    20    9   21       1
    21    9   22       1
    22    9   23       1
    23   10   24       1
    24   10   25       1
    25   10   26       1
@<TRIPOS>SUBSTRUCTURE
     1 ACH323      1 GROUP             4 B     ACH     0 **** ACH B 323
