@<TRIPOS>MOLECULE
3p7n_FMN_2_ligand
   50    52     1     0     0
SMALL
NO_CHARGES


@<TRIPOS>ATOM
     1 N1           5.8750   -11.4560    50.3890 N.2          1 FMN500   0.0000
     2 C2           5.2680   -12.3340    51.2610 C.2          1 FMN500   0.0000
     3 O2           4.2590   -12.9460    50.9130 O.2          1 FMN500   0.0000
     4 N3           5.7920   -12.5240    52.5240 N.pl3        1 FMN500   0.0000
     5 C4           6.9240   -11.8390    52.9190 C.2          1 FMN500   0.0000
     6 O4           7.3830   -12.0160    54.0460 O.2          1 FMN500   0.0000
     7 C4A          7.5410   -10.9530    52.0420 C.2          1 FMN500   0.0000
     8 N5           8.6750   -10.2570    52.4190 N.2          1 FMN500   0.0000
     9 C5A          9.2740    -9.3800    51.5340 C.ar         1 FMN500   0.0000
    10 C6          10.4150    -8.6750    51.9010 C.ar         1 FMN500   0.0000
    11 C7          11.0090    -7.7940    51.0010 C.ar         1 FMN500   0.0000
    12 C7M         12.2400    -7.0350    51.4010 C.3          1 FMN500   0.0000
    13 C8          10.4650    -7.6160    49.7340 C.ar         1 FMN500   0.0000
    14 C8M         11.1010    -6.6690    48.7590 C.3          1 FMN500   0.0000
    15 C9           9.3270    -8.3200    49.3680 C.ar         1 FMN500   0.0000
    16 C9A          8.7360    -9.1980    50.2670 C.ar         1 FMN500   0.0000
    17 N10          7.6060    -9.8890    49.8970 N.pl3        1 FMN500   0.0000
    18 C10          7.0070   -10.7670    50.7740 C.2          1 FMN500   0.0000
    19 C1'          7.0320    -9.6950    48.5310 C.3          1 FMN500   0.0000
    20 C2'          7.2730   -10.9790    47.7530 C.3          1 FMN500   0.0000
    21 O2'          8.6240   -11.0290    47.3500 O.3          1 FMN500   0.0000
    22 C3'          6.3780   -11.0340    46.5300 C.3          1 FMN500   0.0000
    23 O3'          5.9950   -12.3720    46.3040 O.3          1 FMN500   0.0000
    24 C4'          7.1200   -10.4820    45.3220 C.3          1 FMN500   0.0000
    25 O4'          7.7030    -9.2400    45.6440 O.3          1 FMN500   0.0000
    26 C5'          6.1610   -10.2790    44.1650 C.3          1 FMN500   0.0000
    27 O5'          5.2480   -11.3470    44.1450 O.3          1 FMN500   0.0000
    28 P            4.6360   -11.7700    42.7280 P.3          1 FMN500   0.0000
    29 O1P          5.7260   -12.5120    41.9950 O.co2        1 FMN500   0.0000
    30 O2P          3.4260   -12.6560    42.9050 O.co2        1 FMN500  -1.0000
    31 O3P          4.2620   -10.5100    41.9850 O.co2        1 FMN500  -1.0000
    32 H1           5.3497   -13.1606    53.1557 H            1 FMN500   0.0000
    33 H2          10.8091    -8.8007    52.8114 H            1 FMN500   0.0000
    34 H7M1        12.5333    -6.4523    50.6431 H            1 FMN500   0.0000
    35 H7M2        12.0370    -6.4672    52.1987 H            1 FMN500   0.0000
    36 H7M3        12.9701    -7.6796    51.6278 H            1 FMN500   0.0000
    37 H8M1        10.5792    -6.6686    47.9059 H            1 FMN500   0.0000
    38 H8M2        11.1078    -5.7469    49.1460 H            1 FMN500   0.0000
    39 H8M3        12.0398    -6.9604    48.5753 H            1 FMN500   0.0000
    40 H9           8.9326    -8.1953    48.4576 H            1 FMN500   0.0000
    41 H1'1         7.4847    -8.9286    48.0752 H            1 FMN500   0.0000
    42 H1'2         6.0509    -9.5125    48.5948 H            1 FMN500   0.0000
    43 H2'          7.0754   -11.7630    48.3415 H            1 FMN500   0.0000
    44 H13          8.7880   -11.8720    46.8376 H            1 FMN500   0.0000
    45 H3'          5.5611   -10.4814    46.6951 H            1 FMN500   0.0000
    46 H15          5.8495   -12.5163    45.3252 H            1 FMN500   0.0000
    47 H4'          7.8365   -11.1246    45.0504 H            1 FMN500   0.0000
    48 H17          8.3465    -9.3598    46.4000 H            1 FMN500   0.0000
    49 H5'1         6.6710   -10.2559    43.3051 H            1 FMN500   0.0000
    50 H5'2         5.6682    -9.4170    44.2835 H            1 FMN500   0.0000
@<TRIPOS>BOND
     1    1    2       1
     2    1   18       2
     3    2    3       2
     4    2    4       1
     5    4    5       1
     6    5    6       2
     7    5    7       1
     8    7    8       2
     9    7   18       1
    10    8    9       1
    11    9   10      ar
    12    9   16      ar
    13   10   11      ar
    14   11   12       1
    15   11   13      ar
    16   13   14       1
    17   13   15      ar
    18   15   16      ar
    19   16   17       1
    20   17   18       1
    21   17   19       1
    22   19   20       1
    23   20   21       1
    24   20   22       1
    25   22   23       1
    26   22   24       1
    27   24   25       1
    28   24   26       1
    29   26   27       1
    30   27   28       1
    31   28   29      ar
    32   28   30      ar
    33   28   31      ar
    34    4   32       1
    35   10   33       1
    36   12   34       1
    37   12   35       1
    38   12   36       1
    39   14   37       1
    40   14   38       1
    41   14   39       1
    42   15   40       1
    43   19   41       1
    44   19   42       1
    45   20   43       1
    46   21   44       1
    47   22   45       1
    48   23   46       1
    49   24   47       1
    50   25   48       1
    51   26   49       1
    52   26   50       1
@<TRIPOS>SUBSTRUCTURE
     1 FMN500      1 GROUP             4 B     FMN     0 **** FMN B 500
