@<TRIPOS>MOLECULE
4z34_ON7_1_ligand
   72    75     1     0     0
SMALL
USER_CHARGES


@<TRIPOS>ATOM
     1 O5          -8.5380   -28.6610    53.1580 O.2          1 ON72001   0.0000
     2 C28         -7.4760   -29.2050    52.8430 C.2          1 ON72001   0.0000
     3 O4          -7.4510   -30.3510    52.0640 O.3          1 ON72001   0.0000
     4 C29         -8.6340   -30.9580    51.6200 C.3          1 ON72001   0.0000
     5 C25         -6.1260   -28.7840    53.1450 C.2          1 ON72001   0.0000
     6 C24         -4.9800   -29.5640    53.5420 C.2          1 ON72001   0.0000
     7 C30         -4.8710   -31.0280    53.7590 C.3          1 ON72001   0.0000
     8 C31         -4.8500   -31.4530    55.2820 C.2          1 ON72001   0.0000
     9 O7          -5.4160   -32.5370    55.5570 O.co2        1 ON72001  -0.5000
    10 O6          -4.2720   -30.7070    56.1180 O.co2        1 ON72001  -0.5000
    11 C23         -3.9370   -28.6640    53.6930 C.2          1 ON72001   0.0000
    12 C26         -5.7440   -27.4570    53.0680 C.2          1 ON72001   0.0000
    13 N1          -4.4140   -27.3830    53.4090 N.pl3        1 ON72001   0.0000
    14 C13         -3.6700   -26.1340    53.5140 C.3          1 ON72001   0.0000
    15 C8          -3.0030   -25.5720    52.2280 C.3          1 ON72001   0.0000
    16 C6          -2.0150   -26.6010    51.5100 C.3          1 ON72001   0.0000
    17 O2          -1.0010   -27.0450    52.3820 O.3          1 ON72001   0.0000
    18 C3          -1.3420   -25.9660    50.3030 C.ar         1 ON72001   0.0000
    19 C2          -1.8070   -26.3200    49.0270 C.ar         1 ON72001   0.0000
    20 C5          -0.2930   -25.0500    50.4540 C.ar         1 ON72001   0.0000
    21 C7           0.3030   -24.4770    49.3080 C.ar         1 ON72001   0.0000
    22 O3           1.3370   -23.5600    49.4380 O.3          1 ON72001   0.0000
    23 C11          2.6230   -24.0820    49.7970 C.3          1 ON72001   0.0000
    24 C9          -0.1430   -24.7960    47.9930 C.ar         1 ON72001   0.0000
    25 C10          0.4740   -24.1740    46.7910 C.3          1 ON72001   0.0000
    26 C1          -1.2290   -25.7360    47.8830 C.ar         1 ON72001   0.0000
    27 O1          -1.6590   -26.0200    46.5910 O.3          1 ON72001   0.0000
    28 C4          -3.0050   -25.8530    46.2480 C.3          1 ON72001   0.0000
    29 C12         -4.0330   -24.9890    51.2260 C.3          1 ON72001   0.0000
    30 C14         -4.2230   -23.4450    51.1970 C.3          1 ON72001   0.0000
    31 C16         -2.9910   -22.6470    50.6620 C.3          1 ON72001   0.0000
    32 C18         -3.2340   -22.5170    49.1960 C.ar         1 ON72001   0.0000
    33 C19         -2.3360   -22.1670    48.1870 C.ar         1 ON72001   0.0000
    34 C20         -2.7660   -22.2090    46.8410 C.ar         1 ON72001   0.0000
    35 C21         -4.0720   -22.5980    46.5290 C.ar         1 ON72001   0.0000
    36 C22         -4.9930   -22.9450    47.5600 C.ar         1 ON72001   0.0000
    37 C17         -4.5580   -22.8820    48.8930 C.ar         1 ON72001   0.0000
    38 C15         -5.3240   -23.1280    50.1540 C.3          1 ON72001   0.0000
    39 H1          -8.4099   -31.7665    51.0758 H            1 ON72001   0.0000
    40 H2          -9.1857   -31.2294    52.4086 H            1 ON72001   0.0000
    41 H3          -9.1503   -30.3111    51.0588 H            1 ON72001   0.0000
    42 H4          -4.0249   -31.3470    53.3319 H            1 ON72001   0.0000
    43 H5          -5.6533   -31.4700    53.3200 H            1 ON72001   0.0000
    44 H6          -3.0010   -28.8933    53.9602 H            1 ON72001   0.0000
    45 H7          -6.3301   -26.6888    52.8104 H            1 ON72001   0.0000
    46 H8          -2.9446   -26.2757    54.1876 H            1 ON72001   0.0000
    47 H9          -4.3044   -25.4372    53.8488 H            1 ON72001   0.0000
    48 H10         -2.4363   -24.8026    52.5227 H            1 ON72001   0.0000
    49 H11         -2.5436   -27.3925    51.2032 H            1 ON72001   0.0000
    50 H12         -1.3451   -27.0446    53.3209 H            1 ON72001   0.0000
    51 H13         -2.5471   -26.9855    48.9302 H            1 ON72001   0.0000
    52 H14          0.0320   -24.8032    51.3669 H            1 ON72001   0.0000
    53 H15          3.2814   -23.3320    49.8601 H            1 ON72001   0.0000
    54 H16          2.5598   -24.5453    50.6810 H            1 ON72001   0.0000
    55 H17          2.9249   -24.7329    49.1004 H            1 ON72001   0.0000
    56 H18          0.0266   -24.5237    45.9679 H            1 ON72001   0.0000
    57 H19          0.3623   -23.1812    46.8349 H            1 ON72001   0.0000
    58 H20          1.4480   -24.3989    46.7621 H            1 ON72001   0.0000
    59 H21         -3.1376   -26.1007    45.2883 H            1 ON72001   0.0000
    60 H22         -3.5715   -26.4409    46.8254 H            1 ON72001   0.0000
    61 H23         -3.2679   -24.8980    46.3852 H            1 ON72001   0.0000
    62 H24         -4.9212   -25.3948    51.4413 H            1 ON72001   0.0000
    63 H25         -3.7506   -25.2720    50.3094 H            1 ON72001   0.0000
    64 H26         -4.4908   -23.1093    52.1001 H            1 ON72001   0.0000
    65 H27         -2.1433   -23.1480    50.8362 H            1 ON72001   0.0000
    66 H28         -2.9401   -21.7459    51.0926 H            1 ON72001   0.0000
    67 H29         -1.4019   -21.8905    48.4127 H            1 ON72001   0.0000
    68 H30         -2.1328   -21.9592    46.1084 H            1 ON72001   0.0000
    69 H31         -4.3630   -22.6332    45.5729 H            1 ON72001   0.0000
    70 H32         -5.9267   -23.2266    47.3389 H            1 ON72001   0.0000
    71 H33         -5.8436   -22.3160    50.4197 H            1 ON72001   0.0000
    72 H34         -5.9475   -23.9025    50.0471 H            1 ON72001   0.0000
@<TRIPOS>BOND
     1    1    2       2
     2    2    3       1
     3    2    5       1
     4    3    4       1
     5    5    6       1
     6    5   12       2
     7    6    7       1
     8    6   11       2
     9    7    8       1
    10    8    9      ar
    11    8   10      ar
    12   11   13       1
    13   12   13       1
    14   13   14       1
    15   14   15       1
    16   15   16       1
    17   15   29       1
    18   16   17       1
    19   16   18       1
    20   18   19      ar
    21   18   20      ar
    22   19   26      ar
    23   20   21      ar
    24   21   22       1
    25   21   24      ar
    26   22   23       1
    27   24   25       1
    28   24   26      ar
    29   26   27       1
    30   27   28       1
    31   29   30       1
    32   30   31       1
    33   30   38       1
    34   31   32       1
    35   32   33      ar
    36   32   37      ar
    37   33   34      ar
    38   34   35      ar
    39   35   36      ar
    40   36   37      ar
    41   37   38       1
    42    4   39       1
    43    4   40       1
    44    4   41       1
    45    7   42       1
    46    7   43       1
    47   38   72       1
    48   11   44       1
    49   12   45       1
    50   14   46       1
    51   14   47       1
    52   15   48       1
    53   16   49       1
    54   17   50       1
    55   19   51       1
    56   20   52       1
    57   23   53       1
    58   23   54       1
    59   23   55       1
    60   25   56       1
    61   25   57       1
    62   25   58       1
    63   28   59       1
    64   28   60       1
    65   28   61       1
    66   29   62       1
    67   29   63       1
    68   30   64       1
    69   31   65       1
    70   31   66       1
    71   33   67       1
    72   34   68       1
    73   35   69       1
    74   36   70       1
    75   38   71       1
@<TRIPOS>SUBSTRUCTURE
     1 ON72001     1 GROUP             4 A     ON7     0 **** ON7 A2001
