@<TRIPOS>MOLECULE
4a6r_TA8_2_ligand
   34    33     1     0     0
SMALL
NO_CHARGES


@<TRIPOS>ATOM
     1 O42         35.5600    21.8040    33.5490 O.co2        1 TA81460   0.0000
     2 O41         33.3840    21.6720    33.6880 O.co2        1 TA81460  -1.0000
     3 C4          34.4140    22.2440    33.2550 C.2          1 TA81460   0.0000
     4 C41         34.2540    23.4330    32.3740 C.3          1 TA81460   0.0000
     5 C32         33.4660    23.2130    31.1220 C.3          1 TA81460   0.0000
     6 C3          35.1860    22.4780    29.5610 C.2          1 TA81460   0.0000
     7 O31         36.1290    21.6490    29.5290 O.co2        1 TA81460   0.0000
     8 O32         35.3030    23.6120    29.0250 O.co2        1 TA81460  -1.0000
     9 C22         32.8930    21.8000    29.1590 C.3          1 TA81460   0.0000
    10 C2          30.6070    21.1230    28.5120 C.2          1 TA81460   0.0000
    11 O21         30.4090    22.0990    27.7460 O.co2        1 TA81460   0.0000
    12 O22         29.9620    20.0570    28.3380 O.co2        1 TA81460  -1.0000
    13 C10         29.6590    19.1000    31.0340 C.3          1 TA81460   0.0000
    14 C11         30.6670    18.9210    29.9500 C.3          1 TA81460   0.0000
    15 C12         31.8180    19.8500    30.1410 C.3          1 TA81460   0.0000
    16 C1          31.2120    17.5520    29.9150 C.2          1 TA81460   0.0000
    17 O12         30.4990    16.5760    29.5660 O.co2        1 TA81460   0.0000
    18 O11         32.4180    17.4010    30.2270 O.co2        1 TA81460  -1.0000
    19 C21         31.5960    21.2220    29.6220 C.3          1 TA81460   0.0000
    20 C31         33.9070    22.1070    30.2180 C.3          1 TA81460   0.0000
    21 H1          35.1669    23.7454    32.1112 H            1 TA81460   0.0000
    22 H2          33.7965    24.1477    32.9030 H            1 TA81460   0.0000
    23 H3          33.4972    24.0621    30.5947 H            1 TA81460   0.0000
    24 H4          32.5220    23.0222    31.3912 H            1 TA81460   0.0000
    25 H5          32.6903    22.6524    28.6769 H            1 TA81460   0.0000
    26 H6          33.3061    21.1477    28.5235 H            1 TA81460   0.0000
    27 H7          28.8968    18.4693    30.8879 H            1 TA81460   0.0000
    28 H8          30.0840    18.9100    31.9190 H            1 TA81460   0.0000
    29 H9          29.3201    20.0408    31.0220 H            1 TA81460   0.0000
    30 H10         30.2343    19.1191    29.0705 H            1 TA81460   0.0000
    31 H11         32.6121    19.4636    29.6718 H            1 TA81460   0.0000
    32 H12         32.0082    19.9139    31.1207 H            1 TA81460   0.0000
    33 H13         31.2198    21.7946    30.3504 H            1 TA81460   0.0000
    34 H14         34.0557    21.2846    30.7671 H            1 TA81460   0.0000
@<TRIPOS>BOND
     1    1    3      ar
     2    2    3      ar
     3    3    4       1
     4    4    5       1
     5    5   20       1
     6    6    7      ar
     7    6    8      ar
     8    6   20       1
     9    9   19       1
    10    9   20       1
    11   10   11      ar
    12   10   12      ar
    13   10   19       1
    14   13   14       1
    15   14   15       1
    16   14   16       1
    17   15   19       1
    18   16   17      ar
    19   16   18      ar
    20   20   34       1
    21    4   21       1
    22    4   22       1
    23    5   23       1
    24    5   24       1
    25   19   33       1
    26    9   25       1
    27    9   26       1
    28   15   32       1
    29   13   27       1
    30   13   28       1
    31   13   29       1
    32   14   30       1
    33   15   31       1
@<TRIPOS>SUBSTRUCTURE
     1 TA81460     1 GROUP             4 B     TA8     0 **** TA8 B1460
