@<TRIPOS>MOLECULE
2i8c_ADP_2_ligand
   39    41     1     0     0
SMALL
NO_CHARGES


@<TRIPOS>ATOM
     1 PB          23.5010    13.0030    29.2090 P.3          1 ADP400   0.0000
     2 O1B         23.5210    12.1810    27.9390 O.co2        1 ADP400   0.0000
     3 O2B         24.6740    12.7590    30.1530 O.co2        1 ADP400  -1.0000
     4 O3B         23.3220    14.4750    28.9380 O.co2        1 ADP400  -1.0000
     5 PA          21.5860    12.7840    31.4160 P.3          1 ADP400   0.0000
     6 O1A         20.0910    12.4680    31.5500 O.co2        1 ADP400   0.0000
     7 O2A         22.5180    12.0600    32.3580 O.co2        1 ADP400  -1.0000
     8 O3A         22.1050    12.4860    29.9070 O.3          1 ADP400   0.0000
     9 O5'         21.8190    14.4090    31.5620 O.3          1 ADP400   0.0000
    10 C5'         22.9470    15.1180    32.1520 C.3          1 ADP400   0.0000
    11 C4'         22.7810    15.6170    33.6190 C.3          1 ADP400   0.0000
    12 O4'         21.5720    16.3620    33.9510 O.3          1 ADP400   0.0000
    13 C3'         22.8120    14.4190    34.5640 C.3          1 ADP400   0.0000
    14 O3'         24.1490    14.2020    35.0630 O.3          1 ADP400   0.0000
    15 C2'         21.7460    14.6820    35.6190 C.3          1 ADP400   0.0000
    16 O2'         22.4120    14.7650    36.8560 O.3          1 ADP400   0.0000
    17 C1'         21.0030    15.9640    35.2190 C.3          1 ADP400   0.0000
    18 N9          19.5820    15.5560    35.0750 N.pl3        1 ADP400   0.0000
    19 C8          19.0970    14.9860    33.9440 C.2          1 ADP400   0.0000
    20 N7          17.7780    14.6600    34.0680 N.2          1 ADP400   0.0000
    21 C5          17.3800    15.0090    35.2910 C.ar         1 ADP400   0.0000
    22 C6          16.1170    14.9210    36.0510 C.ar         1 ADP400   0.0000
    23 N6          15.0190    14.4150    35.4970 N.pl3        1 ADP400   0.0000
    24 N1          16.0780    15.3720    37.3180 N.ar         1 ADP400   0.0000
    25 C2          17.1900    15.8930    37.8840 C.ar         1 ADP400   0.0000
    26 N3          18.3820    16.0080    37.2470 N.ar         1 ADP400   0.0000
    27 C4          18.5640    15.6000    35.9590 C.ar         1 ADP400   0.0000
    28 H5'1        23.1328    15.9175    31.5808 H            1 ADP400   0.0000
    29 H5'2        23.7348    14.5024    32.1302 H            1 ADP400   0.0000
    30 H4'         23.5664    16.1971    33.8351 H            1 ADP400   0.0000
    31 H3'         22.5402    13.6086    34.0450 H            1 ADP400   0.0000
    32 H5          24.4598    13.2893    34.7976 H            1 ADP400   0.0000
    33 H2'         21.1021    13.9171    35.6388 H            1 ADP400   0.0000
    34 H7          23.3931    14.6313    36.7160 H            1 ADP400   0.0000
    35 H1'         21.1102    16.6797    35.9091 H            1 ADP400   0.0000
    36 H9          19.6398    14.8244    33.1199 H            1 ADP400   0.0000
    37 H10         14.1714    14.3623    36.0249 H            1 ADP400   0.0000
    38 H11         15.0410    14.0873    34.5525 H            1 ADP400   0.0000
    39 H12         17.1300    16.2129    38.8295 H            1 ADP400   0.0000
@<TRIPOS>BOND
     1    1    2      ar
     2    1    3      ar
     3    1    4      ar
     4    1    8       1
     5    5    6      ar
     6    5    7      ar
     7    5    8       1
     8    5    9       1
     9    9   10       1
    10   10   11       1
    11   11   12       1
    12   11   13       1
    13   12   17       1
    14   13   14       1
    15   13   15       1
    16   15   16       1
    17   15   17       1
    18   17   18       1
    19   18   19       1
    20   18   27       1
    21   19   20       2
    22   20   21       1
    23   21   22      ar
    24   21   27      ar
    25   22   23       1
    26   22   24      ar
    27   24   25      ar
    28   25   26      ar
    29   26   27      ar
    30   25   39       1
    31   23   38       1
    32   23   37       1
    33   10   28       1
    34   10   29       1
    35   11   30       1
    36   13   31       1
    37   14   32       1
    38   15   33       1
    39   16   34       1
    40   17   35       1
    41   19   36       1
@<TRIPOS>SUBSTRUCTURE
     1 ADP400      1 GROUP             4 B     ADP     0 **** ADP B 400
