@<TRIPOS>MOLECULE
1xuz_MMN_1_ligand
   32    31     1     0     0
SMALL
NO_CHARGES


@<TRIPOS>ATOM
     1 C8          94.5210   -24.8230    54.4200 C.3          1 MMN3001   0.0000
     2 C7          95.5790   -24.6160    53.3330 C.2          1 MMN3001   0.0000
     3 O7          96.6360   -25.2450    53.3570 O.2          1 MMN3001   0.0000
     4 N1          95.2570   -23.7190    52.4040 N.am         1 MMN3001   0.0000
     5 C2          96.1380   -23.3800    51.2760 C.3          1 MMN3001   0.0000
     6 C1          96.5790   -21.9170    51.3710 C.3          1 MMN3001   0.0000
     7 O1          95.4380   -21.0640    51.4940 O.3          1 MMN3001   0.0000
     8 C3          95.4150   -23.6540    49.9550 C.3          1 MMN3001   0.0000
     9 O3          96.2470   -23.2310    48.8710 O.3          1 MMN3001   0.0000
    10 C4          95.0960   -25.1440    49.8040 C.3          1 MMN3001   0.0000
    11 O4          96.3200   -25.8810    49.7420 O.3          1 MMN3001   0.0000
    12 C5          94.2730   -25.4170    48.5410 C.3          1 MMN3001   0.0000
    13 O5          93.0650   -24.6520    48.5730 O.3          1 MMN3001   0.0000
    14 C6          93.9220   -26.9020    48.4280 C.3          1 MMN3001   0.0000
    15 O6          93.0890   -27.1120    47.2850 O.3          1 MMN3001   0.0000
    16 H1          93.7355   -24.2316    54.2376 H            1 MMN3001   0.0000
    17 H2          94.2259   -25.7785    54.4203 H            1 MMN3001   0.0000
    18 H3          94.9105   -24.5941    55.3121 H            1 MMN3001   0.0000
    19 H4          94.3748   -23.2537    52.4763 H            1 MMN3001   0.0000
    20 H5          96.9506   -23.9611    51.3208 H            1 MMN3001   0.0000
    21 H6          97.0877   -21.6712    50.5459 H            1 MMN3001   0.0000
    22 H7          97.1664   -21.8004    52.1719 H            1 MMN3001   0.0000
    23 H8          94.8495   -21.1770    50.6934 H            1 MMN3001   0.0000
    24 H9          94.5616   -23.1331    49.9350 H            1 MMN3001   0.0000
    25 H10         95.6740   -22.9416    48.1043 H            1 MMN3001   0.0000
    26 H11         94.5752   -25.4467    50.6022 H            1 MMN3001   0.0000
    27 H12         97.0318   -25.3111    49.3314 H            1 MMN3001   0.0000
    28 H13         94.8075   -25.1474    47.7400 H            1 MMN3001   0.0000
    29 H14         93.2215   -23.7636    48.1415 H            1 MMN3001   0.0000
    30 H15         93.4359   -27.1928    49.2521 H            1 MMN3001   0.0000
    31 H16         94.7618   -27.4360    48.3305 H            1 MMN3001   0.0000
    32 H17         92.1293   -27.0205    47.5506 H            1 MMN3001   0.0000
@<TRIPOS>BOND
     1    1    2       1
     2    2    3       2
     3    2    4      am
     4    4    5       1
     5    5    6       1
     6    5    8       1
     7    6    7       1
     8    8    9       1
     9    8   10       1
    10   10   11       1
    11   10   12       1
    12   12   13       1
    13   12   14       1
    14   14   15       1
    15    1   16       1
    16    1   17       1
    17    1   18       1
    18    4   19       1
    19    5   20       1
    20    6   21       1
    21    6   22       1
    22    7   23       1
    23    8   24       1
    24    9   25       1
    25   10   26       1
    26   11   27       1
    27   12   28       1
    28   13   29       1
    29   14   30       1
    30   14   31       1
    31   15   32       1
@<TRIPOS>SUBSTRUCTURE
     1 MMN3001     1 GROUP             4 A     MMN     0 **** MMN A3001
