@<TRIPOS>MOLECULE
2tmd_ADP_2_ligand
   39    41     1     0     0
SMALL
NO_CHARGES


@<TRIPOS>ATOM
     1 PB           8.7410     3.5630    21.3120 P.3          1 ADP803   0.0000
     2 O1B          8.3500     3.8680    22.6940 O.co2        1 ADP803   0.0000
     3 O2B          8.7610     4.7340    20.4100 O.co2        1 ADP803  -1.0000
     4 O3B          9.9450     2.7270    21.2040 O.co2        1 ADP803  -1.0000
     5 PA           7.0690     1.2290    20.9730 P.3          1 ADP803   0.0000
     6 O1A          6.8890     0.5640    19.6820 O.co2        1 ADP803   0.0000
     7 O2A          7.8850     0.5560    22.0180 O.co2        1 ADP803  -1.0000
     8 O3A          7.5850     2.6930    20.6520 O.3          1 ADP803   0.0000
     9 O5'          5.6740     1.4830    21.6530 O.3          1 ADP803   0.0000
    10 C5'          4.5810     1.9860    20.9240 C.3          1 ADP803   0.0000
    11 C4'          3.3070     1.6460    21.6390 C.3          1 ADP803   0.0000
    12 O4'          2.2370     2.3830    21.0860 O.3          1 ADP803   0.0000
    13 C3'          3.0090     0.1960    21.4280 C.3          1 ADP803   0.0000
    14 O3'          2.8600    -0.3720    22.7060 O.3          1 ADP803   0.0000
    15 C2'          1.6820     0.2210    20.6970 C.3          1 ADP803   0.0000
    16 O2'          0.7920    -0.8090    21.1810 O.3          1 ADP803   0.0000
    17 C1'          1.1410     1.5360    21.0820 C.3          1 ADP803   0.0000
    18 N9           0.1710     2.0000    20.1230 N.pl3        1 ADP803   0.0000
    19 C8           0.2840     2.0540    18.7830 C.2          1 ADP803   0.0000
    20 N7          -0.7680     2.5650    18.1990 N.2          1 ADP803   0.0000
    21 C5          -1.6440     2.8730    19.2410 C.ar         1 ADP803   0.0000
    22 C6          -2.9480     3.4400    19.2660 C.ar         1 ADP803   0.0000
    23 N6          -3.5360     3.9130    18.1750 N.pl3        1 ADP803   0.0000
    24 N1          -3.5530     3.5640    20.4640 N.ar         1 ADP803   0.0000
    25 C2          -2.8750     3.1550    21.5400 C.ar         1 ADP803   0.0000
    26 N3          -1.6550     2.6330    21.6500 N.ar         1 ADP803   0.0000
    27 C4          -1.0750     2.5150    20.4290 C.ar         1 ADP803   0.0000
    28 H5'1         4.5713     1.5763    20.0118 H            1 ADP803   0.0000
    29 H5'2         4.6630     2.9793    20.8424 H            1 ADP803   0.0000
    30 H4'          3.3948     1.8429    22.6155 H            1 ADP803   0.0000
    31 H3'          3.7221    -0.2600    20.8956 H            1 ADP803   0.0000
    32 H5           2.1088     0.0807    23.1865 H            1 ADP803   0.0000
    33 H2'          1.8103     0.1557    19.7074 H            1 ADP803   0.0000
    34 H7           0.6191    -0.6690    22.1559 H            1 ADP803   0.0000
    35 H1'          0.7336     1.4906    21.9941 H            1 ADP803   0.0000
    36 H9           1.0905     1.7357    18.2848 H            1 ADP803   0.0000
    37 H10         -4.4544     4.3046    18.2318 H            1 ADP803   0.0000
    38 H11         -3.0609     3.8780    17.2958 H            1 ADP803   0.0000
    39 H12         -3.3646     3.2579    22.4059 H            1 ADP803   0.0000
@<TRIPOS>BOND
     1    1    2      ar
     2    1    3      ar
     3    1    4      ar
     4    1    8       1
     5    5    6      ar
     6    5    7      ar
     7    5    8       1
     8    5    9       1
     9    9   10       1
    10   10   11       1
    11   11   12       1
    12   11   13       1
    13   12   17       1
    14   13   14       1
    15   13   15       1
    16   15   16       1
    17   15   17       1
    18   17   18       1
    19   18   19       1
    20   18   27       1
    21   19   20       2
    22   20   21       1
    23   21   22      ar
    24   21   27      ar
    25   22   23       1
    26   22   24      ar
    27   24   25      ar
    28   25   26      ar
    29   26   27      ar
    30   25   39       1
    31   23   38       1
    32   23   37       1
    33   10   28       1
    34   10   29       1
    35   11   30       1
    36   13   31       1
    37   14   32       1
    38   15   33       1
    39   16   34       1
    40   17   35       1
    41   19   36       1
@<TRIPOS>SUBSTRUCTURE
     1 ADP803      1 GROUP             4 B     ADP     0 **** ADP B 803
