@<TRIPOS>MOLECULE
4gu5_FAD_2_ligand
   84    89     1     0     0
SMALL
NO_CHARGES


@<TRIPOS>ATOM
     1 PA          -2.6330    45.3390    13.5040 P.3          1 FAD602   0.0000
     2 O1A         -2.9150    46.0290    14.7890 O.co2        1 FAD602   0.0000
     3 O2A         -3.1970    43.8940    13.4100 O.co2        1 FAD602  -1.0000
     4 O5B         -1.0800    45.2940    13.2840 O.3          1 FAD602   0.0000
     5 C5B         -0.1880    46.2740    13.7810 C.3          1 FAD602   0.0000
     6 C4B          0.8680    46.7080    12.8360 C.3          1 FAD602   0.0000
     7 O4B          1.5260    45.6040    12.2770 O.3          1 FAD602   0.0000
     8 C3B          0.3020    47.4350    11.7210 C.3          1 FAD602   0.0000
     9 O3B          0.1070    48.8170    12.0490 O.3          1 FAD602   0.0000
    10 C2B          1.2820    47.2840    10.7270 C.3          1 FAD602   0.0000
    11 O2B          2.3010    48.2360    10.8990 O.3          1 FAD602   0.0000
    12 C1B          1.7820    45.9080    10.9470 C.3          1 FAD602   0.0000
    13 N9A          1.0460    45.0320    10.0000 N.pl3        1 FAD602   0.0000
    14 C8A         -0.1280    44.4380    10.2400 C.2          1 FAD602   0.0000
    15 N7A         -0.5170    43.7620     9.1390 N.2          1 FAD602   0.0000
    16 C5A          0.4150    43.9370     8.1760 C.ar         1 FAD602   0.0000
    17 C6A          0.5610    43.4830     6.8600 C.ar         1 FAD602   0.0000
    18 N6A         -0.4160    42.6530     6.2550 N.pl3        1 FAD602   0.0000
    19 N1A          1.6310    43.8500     6.1510 N.ar         1 FAD602   0.0000
    20 C2A          2.5530    44.6420     6.7080 C.ar         1 FAD602   0.0000
    21 N3A          2.4560    45.0940     7.9680 N.ar         1 FAD602   0.0000
    22 C4A          1.4050    44.7620     8.7220 C.ar         1 FAD602   0.0000
    23 N1          -0.1370    48.2440     5.9640 N.2          1 FAD602   0.0000
    24 C2           0.5870    49.3600     6.1540 C.2          1 FAD602   0.0000
    25 O2           1.1580    49.5940     7.4010 O.2          1 FAD602   0.0000
    26 N3           0.7690    50.2400     5.1570 N.pl3        1 FAD602   0.0000
    27 C4           0.2220    50.0000     3.9540 C.2          1 FAD602   0.0000
    28 O4           0.4330    50.9150     2.9800 O.2          1 FAD602   0.0000
    29 C4X         -0.5340    48.8590     3.7100 C.2          1 FAD602   0.0000
    30 N5          -1.0990    48.5970     2.5230 N.2          1 FAD602   0.0000
    31 C5X         -1.8400    47.4640     2.3590 C.ar         1 FAD602   0.0000
    32 C6          -2.4300    47.1700     1.1320 C.ar         1 FAD602   0.0000
    33 C7          -3.1910    46.0130     0.9480 C.ar         1 FAD602   0.0000
    34 C7M         -3.8330    45.7150    -0.4500 C.3          1 FAD602   0.0000
    35 C8          -3.3610    45.1240     2.0200 C.ar         1 FAD602   0.0000
    36 C8M         -4.1710    43.8230     1.8680 C.3          1 FAD602   0.0000
    37 C9          -2.7490    45.4210     3.2480 C.ar         1 FAD602   0.0000
    38 C9A         -2.0070    46.5870     3.4040 C.ar         1 FAD602   0.0000
    39 N10         -1.4610    46.8760     4.6070 N.pl3        1 FAD602   0.0000
    40 C10         -0.7200    47.9910     4.7630 C.2          1 FAD602   0.0000
    41 C1'         -1.5540    45.9460     5.7410 C.3          1 FAD602   0.0000
    42 C2'         -2.5520    45.9800     6.8750 C.3          1 FAD602   0.0000
    43 O2'         -3.9630    45.8880     6.3050 O.3          1 FAD602   0.0000
    44 C3'         -2.4900    47.2000     7.7700 C.3          1 FAD602   0.0000
    45 O3'         -1.2200    47.2830     8.2920 O.3          1 FAD602   0.0000
    46 C4'         -3.4140    46.9630     8.9520 C.3          1 FAD602   0.0000
    47 O4'         -4.6910    47.0180     8.5250 O.3          1 FAD602   0.0000
    48 C5'         -3.2470    48.0160    10.0350 C.3          1 FAD602   0.0000
    49 O5'         -4.2260    48.0820    11.0110 O.3          1 FAD602   0.0000
    50 P           -3.8740    47.6500    12.5050 P.3          1 FAD602   0.0000
    51 O1P         -2.7610    48.5360    13.0580 O.co2        1 FAD602   0.0000
    52 O2P         -5.1310    47.6260    13.3650 O.co2        1 FAD602  -1.0000
    53 O3P         -3.2640    46.2170    12.2930 O.3          1 FAD602   0.0000
    54 H5B1         0.2594    45.9006    14.5937 H            1 FAD602   0.0000
    55 H5B2        -0.7242    47.0788    14.0357 H            1 FAD602   0.0000
    56 H4B          1.5291    47.2867    13.3136 H            1 FAD602   0.0000
    57 H3B         -0.5594    47.0181    11.4310 H            1 FAD602   0.0000
    58 H5          -0.8059    48.9418    12.4375 H            1 FAD602   0.0000
    59 H2B          0.8744    47.3675     9.8176 H            1 FAD602   0.0000
    60 H7           2.0738    49.0638    10.3860 H            1 FAD602   0.0000
    61 H1B          2.7644    45.8643    10.7656 H            1 FAD602   0.0000
    62 H8A         -0.6369    44.4871    11.0994 H            1 FAD602   0.0000
    63 H6A1        -0.2922    42.3397     5.3135 H            1 FAD602   0.0000
    64 H6A2        -1.2290    42.3808     6.7698 H            1 FAD602   0.0000
    65 H2A          3.3480    44.9087     6.1631 H            1 FAD602   0.0000
    66 H13          1.3081    51.0685     5.3088 H            1 FAD602   0.0000
    67 H14         -2.3061    47.8009     0.3661 H            1 FAD602   0.0000
    68 H7M1        -4.3399    44.8541    -0.4073 H            1 FAD602   0.0000
    69 H7M2        -4.4566    46.4572    -0.6955 H            1 FAD602   0.0000
    70 H7M3        -3.1122    45.6435    -1.1394 H            1 FAD602   0.0000
    71 H8M1        -4.1757    43.3297     2.7378 H            1 FAD602   0.0000
    72 H8M2        -5.1102    44.0439     1.6050 H            1 FAD602   0.0000
    73 H8M3        -3.7531    43.2507     1.1624 H            1 FAD602   0.0000
    74 H21         -2.8473    44.7891     4.0168 H            1 FAD602   0.0000
    75 H1'1        -0.6596    45.9941     6.1856 H            1 FAD602   0.0000
    76 H1'2        -1.6709    45.0446     5.3240 H            1 FAD602   0.0000
    77 H2'         -2.3975    45.1728     7.4447 H            1 FAD602   0.0000
    78 H25         -4.2347    44.9277     6.2410 H            1 FAD602   0.0000
    79 H3'         -2.7369    48.0319     7.2730 H            1 FAD602   0.0000
    80 H27         -0.6444    47.8289     7.6832 H            1 FAD602   0.0000
    81 H4'         -3.2325    46.0587     9.3383 H            1 FAD602   0.0000
    82 H29         -4.7377    46.7142     7.5734 H            1 FAD602   0.0000
    83 H5'1        -3.2114    48.9079     9.5841 H            1 FAD602   0.0000
    84 H5'2        -2.3763    47.8396    10.4941 H            1 FAD602   0.0000
@<TRIPOS>BOND
     1    1    2      ar
     2    1    3      ar
     3    1    4       1
     4    1   53       1
     5    4    5       1
     6    5    6       1
     7    6    7       1
     8    6    8       1
     9    7   12       1
    10    8    9       1
    11    8   10       1
    12   10   11       1
    13   10   12       1
    14   12   13       1
    15   13   14       1
    16   13   22       1
    17   14   15       2
    18   15   16       1
    19   16   17      ar
    20   16   22      ar
    21   17   18       1
    22   17   19      ar
    23   19   20      ar
    24   20   21      ar
    25   21   22      ar
    26   23   24       1
    27   23   40       2
    28   24   25       2
    29   24   26       1
    30   26   27       1
    31   27   28       2
    32   27   29       1
    33   29   30       2
    34   29   40       1
    35   30   31       1
    36   31   32      ar
    37   31   38      ar
    38   32   33      ar
    39   33   34       1
    40   33   35      ar
    41   35   36       1
    42   35   37      ar
    43   37   38      ar
    44   38   39       1
    45   39   40       1
    46   39   41       1
    47   41   42       1
    48   42   43       1
    49   42   44       1
    50   44   45       1
    51   44   46       1
    52   46   47       1
    53   46   48       1
    54   48   49       1
    55   49   50       1
    56   50   51      ar
    57   50   52      ar
    58   50   53       1
    59   48   84       1
    60    5   54       1
    61    5   55       1
    62    6   56       1
    63    8   57       1
    64    9   58       1
    65   10   59       1
    66   11   60       1
    67   12   61       1
    68   14   62       1
    69   18   63       1
    70   18   64       1
    71   20   65       1
    72   26   66       1
    73   32   67       1
    74   34   68       1
    75   34   69       1
    76   34   70       1
    77   36   71       1
    78   36   72       1
    79   36   73       1
    80   37   74       1
    81   41   75       1
    82   41   76       1
    83   42   77       1
    84   43   78       1
    85   44   79       1
    86   45   80       1
    87   46   81       1
    88   47   82       1
    89   48   83       1
@<TRIPOS>SUBSTRUCTURE
     1 FAD602      1 GROUP             4 B     FAD     0 **** FAD B 602
