@<TRIPOS>MOLECULE
4yer_ADP_2_ligand
   39    41     1     0     0
SMALL
NO_CHARGES


@<TRIPOS>ATOM
     1 PB          -2.0380   -35.8700    79.7340 P.3          1 ADP400   0.0000
     2 O1B         -2.9280   -35.1280    78.9040 O.co2        1 ADP400   0.0000
     3 O2B         -0.8090   -35.0780    80.0520 O.co2        1 ADP400  -1.0000
     4 O3B         -2.7360   -36.2340    81.0190 O.co2        1 ADP400  -1.0000
     5 PA          -1.5070   -37.6170    77.4070 P.3          1 ADP400   0.0000
     6 O1A         -1.0910   -36.3980    76.5760 O.co2        1 ADP400   0.0000
     7 O2A         -2.7580   -38.2080    76.8730 O.co2        1 ADP400  -1.0000
     8 O3A         -1.6390   -37.2140    78.9550 O.3          1 ADP400   0.0000
     9 O5'         -0.3690   -38.7060    77.3170 O.3          1 ADP400   0.0000
    10 C5'         -0.3660   -39.8650    78.1740 C.3          1 ADP400   0.0000
    11 C4'          0.8590   -40.6860    77.8930 C.3          1 ADP400   0.0000
    12 O4'          0.8850   -41.0260    76.4930 O.3          1 ADP400   0.0000
    13 C3'          2.1920   -40.0200    78.2220 C.3          1 ADP400   0.0000
    14 O3'          3.0350   -40.8670    78.9980 O.3          1 ADP400   0.0000
    15 C2'          2.7290   -39.5650    76.8570 C.3          1 ADP400   0.0000
    16 O2'          4.1430   -39.7170    76.8260 O.3          1 ADP400   0.0000
    17 C1'          2.0530   -40.5320    75.8670 C.3          1 ADP400   0.0000
    18 N9           1.6470   -39.9590    74.5810 N.pl3        1 ADP400   0.0000
    19 C8           0.7170   -38.9700    74.3900 C.2          1 ADP400   0.0000
    20 N7           0.4120   -38.7540    73.1340 N.2          1 ADP400   0.0000
    21 C5           1.2090   -39.6550    72.4440 C.ar         1 ADP400   0.0000
    22 C6           1.3970   -39.8920    71.0660 C.ar         1 ADP400   0.0000
    23 N6           0.6920   -39.2770    70.1090 N.pl3        1 ADP400   0.0000
    24 N1           2.3330   -40.8040    70.7050 N.ar         1 ADP400   0.0000
    25 C2           3.0090   -41.4500    71.6650 C.ar         1 ADP400   0.0000
    26 N3           2.8990   -41.3280    72.9940 N.ar         1 ADP400   0.0000
    27 C4           1.9820   -40.4000    73.3220 C.ar         1 ADP400   0.0000
    28 H5'1        -1.1834   -40.4133    77.9974 H            1 ADP400   0.0000
    29 H5'2        -0.3606   -39.5733    79.1305 H            1 ADP400   0.0000
    30 H4'          0.7947   -41.5338    78.4195 H            1 ADP400   0.0000
    31 H3'          1.9995   -39.2014    78.7632 H            1 ADP400   0.0000
    32 H5           2.5786   -41.0937    79.8584 H            1 ADP400   0.0000
    33 H2'          2.4671   -38.6187    76.6674 H            1 ADP400   0.0000
    34 H7           4.4580   -40.0850    77.7009 H            1 ADP400   0.0000
    35 H1'          2.6722   -41.2981    75.6947 H            1 ADP400   0.0000
    36 H9           0.3067   -38.4575    75.1443 H            1 ADP400   0.0000
    37 H10          0.8682   -39.4844    69.1467 H            1 ADP400   0.0000
    38 H11         -0.0109   -38.6101    70.3562 H            1 ADP400   0.0000
    39 H12          3.6869   -42.1123    71.3459 H            1 ADP400   0.0000
@<TRIPOS>BOND
     1    1    2      ar
     2    1    3      ar
     3    1    4      ar
     4    1    8       1
     5    5    6      ar
     6    5    7      ar
     7    5    8       1
     8    5    9       1
     9    9   10       1
    10   10   11       1
    11   11   12       1
    12   11   13       1
    13   12   17       1
    14   13   14       1
    15   13   15       1
    16   15   16       1
    17   15   17       1
    18   17   18       1
    19   18   19       1
    20   18   27       1
    21   19   20       2
    22   20   21       1
    23   21   22      ar
    24   21   27      ar
    25   22   23       1
    26   22   24      ar
    27   24   25      ar
    28   25   26      ar
    29   26   27      ar
    30   25   39       1
    31   23   38       1
    32   23   37       1
    33   10   28       1
    34   10   29       1
    35   11   30       1
    36   13   31       1
    37   14   32       1
    38   15   33       1
    39   16   34       1
    40   17   35       1
    41   19   36       1
@<TRIPOS>SUBSTRUCTURE
     1 ADP400      1 GROUP             4 B     ADP     0 **** ADP B 400
