@<TRIPOS>MOLECULE
2b3d_FAD_2_ligand
   84    89     1     0     0
SMALL
NO_CHARGES


@<TRIPOS>ATOM
     1 PA          -7.6660     6.6420    -4.8070 P.3          1 FAD1206   0.0000
     2 O1A         -6.3470     5.9590    -4.7760 O.co2        1 FAD1206   0.0000
     3 O2A         -8.0350     7.3390    -6.0450 O.co2        1 FAD1206  -1.0000
     4 O5B         -8.7420     5.5240    -4.4270 O.3          1 FAD1206   0.0000
     5 C5B        -10.1520     5.7700    -4.2880 C.3          1 FAD1206   0.0000
     6 C4B        -10.9780     4.9560    -5.2760 C.3          1 FAD1206   0.0000
     7 O4B        -11.9760     5.8900    -5.6850 O.3          1 FAD1206   0.0000
     8 C3B        -10.2710     4.4890    -6.5600 C.3          1 FAD1206   0.0000
     9 O3B        -10.7130     3.2070    -6.9720 O.3          1 FAD1206   0.0000
    10 C2B        -10.5880     5.5720    -7.5770 C.3          1 FAD1206   0.0000
    11 O2B        -10.5670     5.2000    -8.9390 O.3          1 FAD1206   0.0000
    12 C1B        -11.9410     6.1110    -7.0990 C.3          1 FAD1206   0.0000
    13 N9A        -12.1310     7.5430    -7.2380 N.pl3        1 FAD1206   0.0000
    14 C8A        -11.3450     8.5590    -6.7570 C.2          1 FAD1206   0.0000
    15 N7A        -11.7890     9.7630    -7.0420 N.2          1 FAD1206   0.0000
    16 C5A        -12.9510     9.5170    -7.7600 C.ar         1 FAD1206   0.0000
    17 C6A        -13.9200    10.3950    -8.3610 C.ar         1 FAD1206   0.0000
    18 N6A        -13.8100    11.7270    -8.2910 N.pl3        1 FAD1206   0.0000
    19 N1A        -14.9790     9.8280    -9.0160 N.ar         1 FAD1206   0.0000
    20 C2A        -15.0740     8.4670    -9.0740 C.ar         1 FAD1206   0.0000
    21 N3A        -14.2340     7.5580    -8.5500 N.ar         1 FAD1206   0.0000
    22 C4A        -13.1640     8.1820    -7.8880 C.ar         1 FAD1206   0.0000
    23 N1          -6.0390     1.7700     4.2050 N.2          1 FAD1206   0.0000
    24 C2          -6.5150     1.3590     5.4170 C.2          1 FAD1206   0.0000
    25 O2          -7.7380     1.1350     5.6230 O.2          1 FAD1206   0.0000
    26 N3          -5.6170     1.2000     6.4970 N.pl3        1 FAD1206   0.0000
    27 C4          -4.2260     1.4040     6.4230 C.2          1 FAD1206   0.0000
    28 O4          -3.5040     1.2420     7.4440 O.2          1 FAD1206   0.0000
    29 C4X         -3.7440     1.8010     5.1510 C.2          1 FAD1206   0.0000
    30 N5          -2.3570     2.0420     4.9900 N.2          1 FAD1206   0.0000
    31 C5X         -1.9030     2.4890     3.7400 C.ar         1 FAD1206   0.0000
    32 C6          -0.5080     2.7590     3.5490 C.ar         1 FAD1206   0.0000
    33 C7          -0.0060     3.2090     2.3300 C.ar         1 FAD1206   0.0000
    34 C7M          1.4960     3.4780     2.2240 C.3          1 FAD1206   0.0000
    35 C8          -0.8750     3.4090     1.2320 C.ar         1 FAD1206   0.0000
    36 C8M         -0.4030     3.8940    -0.1250 C.3          1 FAD1206   0.0000
    37 C9          -2.2780     3.1420     1.4090 C.ar         1 FAD1206   0.0000
    38 C9A         -2.8110     2.6920     2.6310 C.ar         1 FAD1206   0.0000
    39 N10         -4.2350     2.4280     2.8300 N.pl3        1 FAD1206   0.0000
    40 C10         -4.6860     1.9900     4.0710 C.2          1 FAD1206   0.0000
    41 C1'         -5.1910     2.6510     1.7150 C.3          1 FAD1206   0.0000
    42 C2'         -5.5000     4.1540     1.5680 C.3          1 FAD1206   0.0000
    43 O2'         -6.1130     4.5930     2.7840 O.3          1 FAD1206   0.0000
    44 C3'         -6.3950     4.3980     0.3550 C.3          1 FAD1206   0.0000
    45 O3'         -5.6570     3.9280    -0.7730 O.3          1 FAD1206   0.0000
    46 C4'         -6.6800     5.9060     0.1660 C.3          1 FAD1206   0.0000
    47 O4'         -7.4270     6.3700     1.2960 O.3          1 FAD1206   0.0000
    48 C5'         -7.5020     6.1800    -1.0590 C.3          1 FAD1206   0.0000
    49 O5'         -7.6270     7.5990    -1.1420 O.3          1 FAD1206   0.0000
    50 P           -7.0010     8.3440    -2.3990 P.3          1 FAD1206   0.0000
    51 O1P         -7.2590     9.7780    -2.2160 O.co2        1 FAD1206   0.0000
    52 O2P         -5.5690     7.9110    -2.5690 O.co2        1 FAD1206  -1.0000
    53 O3P         -7.8330     7.7340    -3.6380 O.3          1 FAD1206   0.0000
    54 H5B1       -10.3265     6.7419    -4.4461 H            1 FAD1206   0.0000
    55 H5B2       -10.4311     5.5281    -3.3587 H            1 FAD1206   0.0000
    56 H4B        -11.4023     4.1779    -4.8128 H            1 FAD1206   0.0000
    57 H3B         -9.2838     4.4629    -6.4024 H            1 FAD1206   0.0000
    58 H5         -10.2312     2.9407    -7.8069 H            1 FAD1206   0.0000
    59 H2B         -9.9155     6.3021    -7.4559 H            1 FAD1206   0.0000
    60 H7         -10.7901     5.9938    -9.5048 H            1 FAD1206   0.0000
    61 H1B        -12.6876     5.6176    -7.5453 H            1 FAD1206   0.0000
    62 H8A        -10.5074     8.3979    -6.2351 H            1 FAD1206   0.0000
    63 H6A1       -14.5010    12.3090    -8.7197 H            1 FAD1206   0.0000
    64 H6A2       -13.0368    12.1403    -7.8100 H            1 FAD1206   0.0000
    65 H2A        -15.8645     8.1024    -9.5661 H            1 FAD1206   0.0000
    66 H13         -5.9979     0.9221     7.3788 H            1 FAD1206   0.0000
    67 H14          0.1226     2.6203     4.3126 H            1 FAD1206   0.0000
    68 H7M1         1.7138     3.7933     1.3004 H            1 FAD1206   0.0000
    69 H7M2         1.7563     4.1807     2.8862 H            1 FAD1206   0.0000
    70 H7M3         1.9998     2.6359     2.4162 H            1 FAD1206   0.0000
    71 H8M1        -1.1846     3.9622    -0.7450 H            1 FAD1206   0.0000
    72 H8M2         0.0246     4.7927    -0.0276 H            1 FAD1206   0.0000
    73 H8M3         0.2623     3.2469    -0.4973 H            1 FAD1206   0.0000
    74 H21         -2.8964     3.2813     0.6356 H            1 FAD1206   0.0000
    75 H1'1        -6.0395     2.1567     1.9041 H            1 FAD1206   0.0000
    76 H1'2        -4.7902     2.3118     0.8639 H            1 FAD1206   0.0000
    77 H2'         -4.6410     4.6500     1.4413 H            1 FAD1206   0.0000
    78 H25         -5.4068     4.9043     3.4198 H            1 FAD1206   0.0000
    79 H3'         -7.2518     3.8905     0.4467 H            1 FAD1206   0.0000
    80 H27         -6.2913     3.6018    -1.4739 H            1 FAD1206   0.0000
    81 H4'         -5.8156     6.4055     0.1079 H            1 FAD1206   0.0000
    82 H29         -7.1820     5.8308     2.1018 H            1 FAD1206   0.0000
    83 H5'1        -8.4039     5.7565    -0.9737 H            1 FAD1206   0.0000
    84 H5'2        -7.0421     5.8239    -1.8724 H            1 FAD1206   0.0000
@<TRIPOS>BOND
     1    1    2      ar
     2    1    3      ar
     3    1    4       1
     4    1   53       1
     5    4    5       1
     6    5    6       1
     7    6    7       1
     8    6    8       1
     9    7   12       1
    10    8    9       1
    11    8   10       1
    12   10   11       1
    13   10   12       1
    14   12   13       1
    15   13   14       1
    16   13   22       1
    17   14   15       2
    18   15   16       1
    19   16   17      ar
    20   16   22      ar
    21   17   18       1
    22   17   19      ar
    23   19   20      ar
    24   20   21      ar
    25   21   22      ar
    26   23   24       1
    27   23   40       2
    28   24   25       2
    29   24   26       1
    30   26   27       1
    31   27   28       2
    32   27   29       1
    33   29   30       2
    34   29   40       1
    35   30   31       1
    36   31   32      ar
    37   31   38      ar
    38   32   33      ar
    39   33   34       1
    40   33   35      ar
    41   35   36       1
    42   35   37      ar
    43   37   38      ar
    44   38   39       1
    45   39   40       1
    46   39   41       1
    47   41   42       1
    48   42   43       1
    49   42   44       1
    50   44   45       1
    51   44   46       1
    52   46   47       1
    53   46   48       1
    54   48   49       1
    55   49   50       1
    56   50   51      ar
    57   50   52      ar
    58   50   53       1
    59   48   84       1
    60    5   54       1
    61    5   55       1
    62    6   56       1
    63    8   57       1
    64    9   58       1
    65   10   59       1
    66   11   60       1
    67   12   61       1
    68   14   62       1
    69   18   63       1
    70   18   64       1
    71   20   65       1
    72   26   66       1
    73   32   67       1
    74   34   68       1
    75   34   69       1
    76   34   70       1
    77   36   71       1
    78   36   72       1
    79   36   73       1
    80   37   74       1
    81   41   75       1
    82   41   76       1
    83   42   77       1
    84   43   78       1
    85   44   79       1
    86   45   80       1
    87   46   81       1
    88   47   82       1
    89   48   83       1
@<TRIPOS>SUBSTRUCTURE
     1 FAD1206     1 GROUP             4 B     FAD     0 **** FAD B1206
