@<TRIPOS>MOLECULE
./coach420/2vfc/ligand.pdb
 48 50 0 0 0
SMALL
GASTEIGER

@<TRIPOS>ATOM
      1  N1A       18.6390   -2.2730   14.6220 N.ar  1276  COA1276    -0.2040
      2  C2A       19.0420   -3.3120   15.4420 C.ar  1276  COA1276     0.2016
      3  N3A       19.2620   -4.5700   14.9350 N.ar  1276  COA1276    -0.2048
      4  C4A       19.0760   -4.8180   13.6160 C.ar  1276  COA1276     0.1692
      5  C5A       18.6670   -3.7870   12.7770 C.ar  1276  COA1276     0.1518
      6  C6A       18.4380   -2.5010   13.2780 C.ar  1276  COA1276     0.1919
      7  N6A       17.7100   -1.6320   12.5830 N.pl3 1276  COA1276    -0.1054
      8  N7A       18.5630   -4.3010   11.5370 N.ar  1276  COA1276    -0.2193
      9  C8A       18.8860   -5.6110   11.5760 C.ar  1276  COA1276     0.1816
     10  N9A       19.2070   -5.9460   12.8510 N.ar  1276  COA1276    -0.2693
     11  C1B       19.5790   -7.2870   13.3040 C.3   1276  COA1276     0.2408
     12  C2B       18.3730   -8.2120   13.2880 C.3   1276  COA1276     0.2310
     13  O2B       17.5410   -8.1200   14.4270 O.3   1276  COA1276    -0.2156
     14  C3B       19.0820   -9.5480   13.2460 C.3   1276  COA1276     0.1904
     15  O3B       19.6360   -9.7970   14.5100 O.3   1276  COA1276    -0.2674
     16  P3B       19.6210  -11.2740   15.1440 P.3   1276  COA1276     0.5327
     17  O7A       19.0750  -12.3500   14.2060 O.2   1276  COA1276    -0.2224
     18  O8A       21.0820  -11.5600   15.4780 O.3   1276  COA1276    -0.1145
     19  O9A       18.6680  -11.1550   16.3200 O.3   1276  COA1276    -0.1145
     20  C4B       20.2750   -9.3330   12.3660 C.3   1276  COA1276     0.1775
     21  O4B       20.5240   -7.9280   12.4470 O.3   1276  COA1276    -0.3307
     22  C5B       19.9690   -9.9320   10.9890 C.3   1276  COA1276     0.1812
     23  O5B       19.4680   -8.9680   10.0750 O.3   1276  COA1276    -0.3112
     24  P1A       18.6540   -9.3470    8.7250 P.3   1276  COA1276     0.2189
     25  O1A       19.0370  -10.7290    8.2280 O.3   1276  COA1276    -0.4371
     26  O2A       18.8290   -8.2890    7.6510 O.2   1276  COA1276    -0.5170
     27  O3A       17.1630   -9.5240    9.2470 O.3   1276  COA1276    -0.2703
     28  P2A       16.1510   -8.3110    9.0610 P.3   1276  COA1276     0.2188
     29  O4A       16.4670   -7.2700   10.1180 O.3   1276  COA1276    -0.4371
     30  O5A       14.7230   -8.8440    9.1310 O.2   1276  COA1276    -0.5170
     31  O6A       16.3440   -7.8150    7.5380 O.3   1276  COA1276    -0.3138
     32  CBP       15.6680   -7.8640    5.1300 C.3   1276  COA1276     0.0645
     33  CCP       15.4170   -8.3090    6.5810 C.3   1276  COA1276     0.1519
     34  CDP       14.6590   -6.7450    4.8440 C.3   1276  COA1276     0.0056
     35  CEP       15.3680   -9.0770    4.2560 C.3   1276  COA1276     0.0056
     36  CAP       17.1250   -7.4130    4.8490 C.3   1276  COA1276     0.2312
     37  OAP       18.1150   -8.3840    5.1440 O.3   1276  COA1276    -0.2131
     38  C9P       17.3000   -6.8450    3.4690 C.2   1276  COA1276     0.2719
     39  O9P       16.5750   -5.6760    3.1930 O.2   1276  COA1276    -0.2706
     40  N8P       18.1160   -7.4580    2.5900 N.am  1276  COA1276    -0.2028
     41  C7P       19.1830   -6.7820    1.8680 C.3   1276  COA1276     0.1248
     42  C6P       18.7330   -6.3240    0.4940 C.3   1276  COA1276     0.1102
     43  C5P       19.8340   -6.3830   -0.5560 C.2   1276  COA1276     0.2432
     44  O5P       20.4200   -7.4450   -0.8900 O.2   1276  COA1276    -0.2733
     45  N4P       20.1530   -5.2200   -1.1140 N.am  1276  COA1276    -0.2044
     46  C3P       19.3110   -4.4970   -2.0290 C.3   1276  COA1276     0.1276
     47  C2P       19.6230   -4.9250   -3.4400 C.3   1276  COA1276     0.0920
     48  S1P       18.0330   -5.1480   -4.2540 S.3   1276  COA1276    -0.0802
@<TRIPOS>BOND
     1     1     6   ar
     2     1     2   ar
     3     2     3   ar
     4     3     4   ar
     5     4     5   ar
     6     4    10   ar
     7     5     8   ar
     8     5     6   ar
     9     6     7    1
    10     8     9   ar
    11     9    10   ar
    12    10    11    1
    13    11    21    1
    14    11    12    1
    15    12    14    1
    16    12    13    1
    17    14    20    1
    18    14    15    1
    19    15    16    1
    20    16    17    2
    21    16    18    1
    22    16    19    1
    23    20    22    1
    24    20    21    1
    25    22    23    1
    26    23    24    1
    27    24    26    2
    28    24    25    1
    29    24    27    1
    30    27    28    1
    31    28    31    1
    32    28    30    2
    33    28    29    1
    34    31    33    1
    35    32    35    1
    36    32    34    1
    37    32    36    1
    38    32    33    1
    39    36    38    1
    40    36    37    1
    41    38    40   am
    42    38    39    2
    43    40    41    1
    44    41    42    1
    45    42    43    1
    46    43    45   am
    47    43    44    2
    48    45    46    1
    49    46    47    1
    50    47    48    1
