@<TRIPOS>MOLECULE
2x5z_GDD_1_ligand
   62    65     1     0     0
SMALL
NO_CHARGES


@<TRIPOS>ATOM
     1 N2          18.1020    12.0440     4.1740 N.pl3        1 GDD601   0.0000
     2 C2          18.1570    10.8580     4.7910 C.2          1 GDD601   0.0000
     3 N1          17.9370     9.7400     4.0770 N.2          1 GDD601   0.0000
     4 N3          18.4350    10.8100     6.1190 N.pl3        1 GDD601   0.0000
     5 C4          18.4670     9.6080     6.7370 C.2          1 GDD601   0.0000
     6 C5          18.2390     8.4450     6.0080 C.2          1 GDD601   0.0000
     7 C6          17.9750     8.5200     4.6630 C.2          1 GDD601   0.0000
     8 O6          17.7380     7.3950     3.9240 O.2          1 GDD601   0.0000
     9 N7          18.3720     7.4420     6.8590 N.2          1 GDD601   0.0000
    10 C8          18.6410     7.9220     8.0900 C.2          1 GDD601   0.0000
    11 N9          18.6950     9.2640     8.0080 N.pl3        1 GDD601   0.0000
    12 C1'         18.9970    10.2090     9.0890 C.3          1 GDD601   0.0000
    13 C2'         18.0750    10.0480    10.2830 C.3          1 GDD601   0.0000
    14 O2'         16.9410    10.9000    10.1180 O.3          1 GDD601   0.0000
    15 C3'         18.9380    10.4610    11.4490 C.3          1 GDD601   0.0000
    16 O3'         18.7570    11.8650    11.5580 O.3          1 GDD601   0.0000
    17 C4'         20.3600    10.1530    11.0050 C.3          1 GDD601   0.0000
    18 O4'         20.3040     9.9310     9.5880 O.3          1 GDD601   0.0000
    19 C5'         20.9540     8.9000    11.6100 C.3          1 GDD601   0.0000
    20 O5'         20.0310     7.8730    11.2660 O.3          1 GDD601   0.0000
    21 PA          19.6910     6.7340    12.3560 P.3          1 GDD601   0.0000
    22 O1A         18.9070     5.8340    11.4540 O.co2        1 GDD601   0.0000
    23 O2A         19.2610     7.1940    13.7480 O.co2        1 GDD601  -1.0000
    24 O3A         21.1880     6.2620    12.5220 O.3          1 GDD601   0.0000
    25 PB          21.5670     5.3280    13.7200 P.3          1 GDD601   0.0000
    26 O2B         21.3060     3.9260    13.2910 O.co2        1 GDD601   0.0000
    27 O3B         20.9700     5.9750    14.9360 O.co2        1 GDD601  -1.0000
    28 O1B         23.1930     5.3650    13.7240 O.3          1 GDD601   0.0000
    29 C11         23.9650     6.5750    13.5930 C.3          1 GDD601   0.0000
    30 O51         23.8420     7.4380    14.7060 O.3          1 GDD601   0.0000
    31 C51         24.2020     6.8300    15.9500 C.3          1 GDD601   0.0000
    32 C61         23.9140     7.7260    17.1500 C.3          1 GDD601   0.0000
    33 O6A         23.0030     8.7940    16.8160 O.3          1 GDD601   0.0000
    34 C21         25.4370     6.2370    13.4660 C.3          1 GDD601   0.0000
    35 O21         26.1350     7.4340    13.1930 O.3          1 GDD601   0.0000
    36 C31         25.9940     5.6140    14.7310 C.3          1 GDD601   0.0000
    37 O31         27.4020     5.4550    14.6160 O.3          1 GDD601   0.0000
    38 C41         25.6760     6.5020    15.9090 C.3          1 GDD601   0.0000
    39 O41         26.0600     5.8280    17.1010 O.3          1 GDD601   0.0000
    40 H1          18.2633    12.8846     4.6911 H            1 GDD601   0.0000
    41 H2          17.8996    12.0898     3.1958 H            1 GDD601   0.0000
    42 H3          18.7764     7.3771     8.9175 H            1 GDD601   0.0000
    43 H1'         18.9533    11.1474     8.7462 H            1 GDD601   0.0000
    44 H2'         17.7875     9.0950    10.3789 H            1 GDD601   0.0000
    45 H6          16.1481    10.4908    10.5696 H            1 GDD601   0.0000
    46 H3'         18.6919     9.9810    12.2910 H            1 GDD601   0.0000
    47 H8          18.5660    12.2476    10.6541 H            1 GDD601   0.0000
    48 H4'         20.9514    10.9352    11.2008 H            1 GDD601   0.0000
    49 H5'1        21.0319     8.9885    12.6030 H            1 GDD601   0.0000
    50 H5'2        21.8555     8.7114    11.2205 H            1 GDD601   0.0000
    51 H12         23.6707     7.0612    12.7702 H            1 GDD601   0.0000
    52 H13         23.6863     5.9794    16.0530 H            1 GDD601   0.0000
    53 H14         24.7739     8.1228    17.4713 H            1 GDD601   0.0000
    54 H15         23.5100     7.1720    17.8779 H            1 GDD601   0.0000
    55 H6A         22.0629     8.4917    16.9736 H            1 GDD601   0.0000
    56 H17         25.5636     5.6020    12.7040 H            1 GDD601   0.0000
    57 H18         26.9462     7.2293    12.6453 H            1 GDD601   0.0000
    58 H19         25.5718     4.7183    14.8704 H            1 GDD601   0.0000
    59 H20         27.6051     4.5587    14.2219 H            1 GDD601   0.0000
    60 H21         26.1985     7.3510    15.8298 H            1 GDD601   0.0000
    61 H22         26.7626     6.3602    17.5733 H            1 GDD601   0.0000
    62 H23         18.6132    11.6499     6.6316 H            1 GDD601   0.0000
@<TRIPOS>BOND
     1    1    2       1
     2    2    3       2
     3    2    4       1
     4    3    7       1
     5    4    5       1
     6    5    6       2
     7    5   11       1
     8    6    7       1
     9    6    9       1
    10    7    8       2
    11    9   10       2
    12   10   11       1
    13   11   12       1
    14   12   13       1
    15   12   18       1
    16   13   14       1
    17   13   15       1
    18   15   16       1
    19   15   17       1
    20   17   18       1
    21   17   19       1
    22   19   20       1
    23   20   21       1
    24   21   22      ar
    25   21   23      ar
    26   21   24       1
    27   24   25       1
    28   25   26      ar
    29   25   27      ar
    30   25   28       1
    31   28   29       1
    32   29   30       1
    33   29   34       1
    34   30   31       1
    35   31   32       1
    36   31   38       1
    37   32   33       1
    38   34   35       1
    39   34   36       1
    40   36   37       1
    41   36   38       1
    42   38   39       1
    43    1   40       1
    44    1   41       1
    45   37   59       1
    46   10   42       1
    47   12   43       1
    48   13   44       1
    49   14   45       1
    50   15   46       1
    51   16   47       1
    52   17   48       1
    53   19   49       1
    54   19   50       1
    55   39   61       1
    56   38   60       1
    57   29   51       1
    58   31   52       1
    59   32   53       1
    60   32   54       1
    61   33   55       1
    62   34   56       1
    63   35   57       1
    64   36   58       1
    65    4   62       1
@<TRIPOS>SUBSTRUCTURE
     1 GDD601      1 GROUP             4 A     GDD     0 **** GDD A 601
