@<TRIPOS>MOLECULE
4aov_NAP_1_ligand
   73    77     1     0     0
SMALL
NO_CHARGES


@<TRIPOS>ATOM
     1 PA           9.4350     3.2860    24.4650 P.3          1 NAP1403   0.0000
     2 O1A         10.8640     3.6250    24.1800 O.co2        1 NAP1403   0.0000
     3 O2A          8.7250     2.8290    23.2690 O.co2        1 NAP1403  -1.0000
     4 O5B          8.7710     4.6170    25.0400 O.3          1 NAP1403   0.0000
     5 C5B          8.9890     4.9870    26.3900 C.3          1 NAP1403   0.0000
     6 C4B          8.6310     6.4500    26.5910 C.3          1 NAP1403   0.0000
     7 O4B          9.6420     7.3450    26.1510 O.3          1 NAP1403   0.0000
     8 C3B          7.4260     6.8800    25.7880 C.3          1 NAP1403   0.0000
     9 O3B          6.2860     6.4400    26.4550 O.3          1 NAP1403   0.0000
    10 C2B          7.6300     8.3890    25.7160 C.3          1 NAP1403   0.0000
    11 O2B          7.5110     9.0110    26.9800 O.3          1 NAP1403   0.0000
    12 C1B          9.0920     8.4310    25.3960 C.3          1 NAP1403   0.0000
    13 N9A          9.3380     8.1970    23.9420 N.pl3        1 NAP1403   0.0000
    14 C8A          9.9100     7.0700    23.3690 C.2          1 NAP1403   0.0000
    15 N7A          9.9970     7.2570    22.0340 N.2          1 NAP1403   0.0000
    16 C5A          9.4750     8.4700    21.7490 C.ar         1 NAP1403   0.0000
    17 C6A          9.3100     9.1600    20.5560 C.ar         1 NAP1403   0.0000
    18 N6A          9.6720     8.6140    19.3860 N.pl3        1 NAP1403   0.0000
    19 N1A          8.7360    10.4120    20.5740 N.ar         1 NAP1403   0.0000
    20 C2A          8.3300    10.9990    21.7590 C.ar         1 NAP1403   0.0000
    21 N3A          8.4990    10.3170    22.9380 N.ar         1 NAP1403   0.0000
    22 C4A          9.0600     9.0740    22.9300 C.ar         1 NAP1403   0.0000
    23 O3           9.4500     2.2600    25.7090 O.3          1 NAP1403   0.0000
    24 PN           8.3710     1.4250    26.5360 P.3          1 NAP1403   0.0000
    25 O1N          9.0470     0.9710    27.7680 O.co2        1 NAP1403   0.0000
    26 O2N          7.1460     2.2410    26.6730 O.co2        1 NAP1403  -1.0000
    27 O5D          8.0920     0.1470    25.5820 O.3          1 NAP1403   0.0000
    28 C5D          6.9320     0.0300    24.7790 C.3          1 NAP1403   0.0000
    29 C4D          7.0250    -1.1770    23.8430 C.3          1 NAP1403   0.0000
    30 O4D          8.1730    -1.0600    23.0340 O.3          1 NAP1403   0.0000
    31 C3D          7.1490    -2.5090    24.5850 C.3          1 NAP1403   0.0000
    32 O3D          6.2290    -3.4510    24.0220 O.3          1 NAP1403   0.0000
    33 C2D          8.6030    -2.9460    24.3760 C.3          1 NAP1403   0.0000
    34 O2D          8.7030    -4.3430    24.2660 O.3          1 NAP1403   0.0000
    35 C1D          8.9150    -2.2840    23.0450 C.3          1 NAP1403   0.0000
    36 N1N         10.2940    -1.8340    22.8260 N.ar         1 NAP1403   1.0000
    37 C2N         10.9140    -2.1780    21.6520 C.ar         1 NAP1403   0.0000
    38 C3N         12.1900    -1.7010    21.3670 C.ar         1 NAP1403   0.0000
    39 C7N         12.7330    -1.7600    19.9710 C.2          1 NAP1403   0.0000
    40 O7N         12.0508    -2.5196    18.9861 O.2          1 NAP1403   0.0000
    41 N7N         13.8474    -1.0948    19.7006 N.am         1 NAP1403   0.0000
    42 C4N         12.7910    -0.8320    22.2750 C.ar         1 NAP1403   0.0000
    43 C5N         12.1360    -0.4460    23.4410 C.ar         1 NAP1403   0.0000
    44 C6N         10.8620    -0.9390    23.6910 C.ar         1 NAP1403   0.0000
    45 P2B          6.1240     9.6760    27.4760 P.3          1 NAP1403   0.0000
    46 O1X          6.4270    10.3560    28.7840 O.co2        1 NAP1403   0.0000
    47 O2X          5.6710    10.6200    26.3910 O.co2        1 NAP1403  -1.0000
    48 O3X          5.0980     8.5660    27.6510 O.co2        1 NAP1403  -1.0000
    49 H5B1         9.9519     4.8468    26.6206 H            1 NAP1403   0.0000
    50 H5B2         8.4179     4.4214    26.9849 H            1 NAP1403   0.0000
    51 H4B          8.4514     6.6118    27.5613 H            1 NAP1403   0.0000
    52 H3B          7.4635     6.4830    24.8709 H            1 NAP1403   0.0000
    53 H5           5.7158     7.2258    26.6945 H            1 NAP1403   0.0000
    54 H2B          7.0660     8.8242    25.0142 H            1 NAP1403   0.0000
    55 H1B          9.4918     9.3005    25.6860 H            1 NAP1403   0.0000
    56 H8A         10.2087     6.2536    23.8632 H            1 NAP1403   0.0000
    57 H6A1         9.5462     9.1249    18.5356 H            1 NAP1403   0.0000
    58 H6A2        10.0677     7.6959    19.3638 H            1 NAP1403   0.0000
    59 H2A          7.9179    11.9102    21.7566 H            1 NAP1403   0.0000
    60 H5D1         6.8297     0.8603    24.2311 H            1 NAP1403   0.0000
    61 H5D2         6.1343    -0.0783    25.3723 H            1 NAP1403   0.0000
    62 H4D          6.2138    -1.2018    23.2588 H            1 NAP1403   0.0000
    63 H3D          6.9620    -2.3818    25.5591 H            1 NAP1403   0.0000
    64 H16          5.9381    -4.0959    24.7287 H            1 NAP1403   0.0000
    65 H2D          9.1947    -2.5963    25.1024 H            1 NAP1403   0.0000
    66 H18          7.9756    -4.7724    24.8013 H            1 NAP1403   0.0000
    67 H1D          8.6209    -2.8715    22.2911 H            1 NAP1403   0.0000
    68 H2N         10.4474    -2.7738    20.9983 H            1 NAP1403   0.0000
    69 H7N1        14.2339    -1.1206    18.7787 H            1 NAP1403   0.0000
    70 H7N2        14.3016    -0.5673    20.4186 H            1 NAP1403   0.0000
    71 H4N         13.7077    -0.4799    22.0861 H            1 NAP1403   0.0000
    72 H5N         12.5758     0.1764    24.0884 H            1 NAP1403   0.0000
    73 H6N         10.3602    -0.6401    24.5027 H            1 NAP1403   0.0000
@<TRIPOS>BOND
     1    1    2      ar
     2    1    3      ar
     3    1    4       1
     4    1   23       1
     5    4    5       1
     6    5    6       1
     7    6    7       1
     8    6    8       1
     9    7   12       1
    10    8    9       1
    11    8   10       1
    12   10   11       1
    13   10   12       1
    14   11   45       1
    15   12   13       1
    16   13   14       1
    17   13   22       1
    18   14   15       2
    19   15   16       1
    20   16   17      ar
    21   16   22      ar
    22   17   18       1
    23   17   19      ar
    24   19   20      ar
    25   20   21      ar
    26   21   22      ar
    27   23   24       1
    28   24   25      ar
    29   24   26      ar
    30   24   27       1
    31   27   28       1
    32   28   29       1
    33   29   30       1
    34   29   31       1
    35   30   35       1
    36   31   32       1
    37   31   33       1
    38   33   34       1
    39   33   35       1
    40   35   36       1
    41   36   37      ar
    42   36   44      ar
    43   37   38      ar
    44   38   39       1
    45   38   42      ar
    46   39   40       2
    47   39   41      am
    48   42   43      ar
    49   43   44      ar
    50   45   46      ar
    51   45   47      ar
    52   45   48      ar
    53   43   72       1
    54    5   49       1
    55    5   50       1
    56    6   51       1
    57    8   52       1
    58    9   53       1
    59   10   54       1
    60   12   55       1
    61   14   56       1
    62   18   57       1
    63   18   58       1
    64   20   59       1
    65   44   73       1
    66   28   60       1
    67   28   61       1
    68   29   62       1
    69   31   63       1
    70   32   64       1
    71   33   65       1
    72   34   66       1
    73   35   67       1
    74   37   68       1
    75   41   69       1
    76   41   70       1
    77   42   71       1
@<TRIPOS>SUBSTRUCTURE
     1 NAP1403     1 GROUP             4 A     NAP     0 **** NAP A1403
