@<TRIPOS>MOLECULE
1n35_CH1_1_ligand
   40    41     1     0     0
SMALL
NO_CHARGES


@<TRIPOS>ATOM
     1 N1          -7.2900    89.7260    19.0590 N.pl3        1 CH11291   0.0000
     2 C2          -7.5640    88.3650    19.2600 C.2          1 CH11291   0.0000
     3 N3          -8.4050    87.9240    20.2120 N.2          1 CH11291   0.0000
     4 C4          -9.0410    88.8020    21.0390 C.2          1 CH11291   0.0000
     5 C5          -8.8300    90.1840    20.9160 C.2          1 CH11291   0.0000
     6 C6          -7.9430    90.5980    19.9070 C.2          1 CH11291   0.0000
     7 O2          -7.0430    87.4560    18.5710 O.2          1 CH11291   0.0000
     8 N4          -9.8620    88.2880    21.9580 N.pl3        1 CH11291   0.0000
     9 C1'         -6.3280    90.1940    17.9740 C.3          1 CH11291   0.0000
    10 C2'         -6.9590    90.2160    16.5790 C.3          1 CH11291   0.0000
    11 O2'         -7.0280    88.8960    16.0720 O.3          1 CH11291   0.0000
    12 C3'         -6.0520    91.1200    15.8050 C.3          1 CH11291   0.0000
    13 C4'         -5.3630    91.9720    16.8770 C.3          1 CH11291   0.0000
    14 O4'         -5.8890    91.5380    18.1430 O.3          1 CH11291   0.0000
    15 C5'         -5.6870    93.4050    16.5070 C.3          1 CH11291   0.0000
    16 O5'         -6.4670    94.0500    17.4890 O.3          1 CH11291   0.0000
    17 PA          -7.6810    95.1190    17.1330 P.3          1 CH11291   0.0000
    18 O1A         -7.0360    96.5010    16.8060 O.co2        1 CH11291   0.0000
    19 O2A         -8.5380    95.2140    18.4140 O.co2        1 CH11291  -1.0000
    20 O3A         -8.4840    94.4550    15.8150 O.3          1 CH11291   0.0000
    21 PB          -8.7720    95.3570    14.4530 P.3          1 CH11291   0.0000
    22 O1B         -9.5260    94.4000    13.4580 O.co2        1 CH11291   0.0000
    23 O2B         -7.4190    95.8290    13.8180 O.co2        1 CH11291  -1.0000
    24 O3B         -9.8260    96.6130    14.8220 O.3          1 CH11291   0.0000
    25 PG          -9.9180    97.9940    13.9170 P.3          1 CH11291   0.0000
    26 O1G         -8.7820    98.4930    12.9670 O.co2        1 CH11291   0.0000
    27 O2G        -10.9880    99.0420    14.4550 O.co2        1 CH11291  -1.0000
    28 O3G         -8.9270    98.5270    15.0190 O.co2        1 CH11291  -1.0000
    29 H1          -9.2873    90.8408    21.5156 H            1 CH11291   0.0000
    30 H2          -7.7759    91.5778    19.7975 H            1 CH11291   0.0000
    31 H3         -10.3503    88.8932    22.5867 H            1 CH11291   0.0000
    32 H4          -9.9886    87.2978    22.0176 H            1 CH11291   0.0000
    33 H1'         -5.5312    89.5898    17.9620 H            1 CH11291   0.0000
    34 H2'         -7.8762    90.6118    16.6258 H            1 CH11291   0.0000
    35 H7          -7.4400    88.9100    15.1609 H            1 CH11291   0.0000
    36 H3'1        -6.5765    91.6958    15.1778 H            1 CH11291   0.0000
    37 H3'2        -5.3801    90.5897    15.2879 H            1 CH11291   0.0000
    38 H4'         -4.3742    91.8256    16.8482 H            1 CH11291   0.0000
    39 H5'1        -6.1912    93.4077    15.6434 H            1 CH11291   0.0000
    40 H5'2        -4.8308    93.9092    16.3946 H            1 CH11291   0.0000
@<TRIPOS>BOND
     1    1    2       1
     2    1    6       1
     3    1    9       1
     4    2    3       1
     5    2    7       2
     6    3    4       2
     7    4    5       1
     8    4    8       1
     9    5    6       2
    10    9   10       1
    11    9   14       1
    12   10   11       1
    13   10   12       1
    14   12   13       1
    15   13   14       1
    16   13   15       1
    17   15   16       1
    18   16   17       1
    19   17   18      ar
    20   17   19      ar
    21   17   20       1
    22   20   21       1
    23   21   22      ar
    24   21   23      ar
    25   21   24       1
    26   24   25       1
    27   25   26      ar
    28   25   27      ar
    29   25   28      ar
    30    5   29       1
    31    6   30       1
    32    8   31       1
    33    8   32       1
    34    9   33       1
    35   10   34       1
    36   11   35       1
    37   12   36       1
    38   12   37       1
    39   13   38       1
    40   15   39       1
    41   15   40       1
@<TRIPOS>SUBSTRUCTURE
     1 CH11291     1 GROUP             4 A     CH1     0 **** CH1 A1291
