@<TRIPOS>MOLECULE
3wv8_ATP_2_ligand
   43    45     1     0     0
SMALL
NO_CHARGES


@<TRIPOS>ATOM
     1 PG          16.5870   -44.9300    26.1950 P.3          1 ATP301   0.0000
     2 O1G         15.9280   -46.1860    25.7650 O.co2        1 ATP301   0.0000
     3 O2G         18.0910   -44.7550    25.8010 O.co2        1 ATP301  -1.0000
     4 O3G         16.3870   -44.6050    27.6660 O.co2        1 ATP301  -1.0000
     5 PB          16.1920   -42.2010    25.2960 P.3          1 ATP301   0.0000
     6 O1B         15.1040   -41.3220    24.7820 O.co2        1 ATP301   0.0000
     7 O2B         16.8750   -41.6800    26.6010 O.co2        1 ATP301  -1.0000
     8 O3B         15.6690   -43.7160    25.4340 O.3          1 ATP301   0.0000
     9 PA          17.3620   -42.1870    22.6670 P.3          1 ATP301   0.0000
    10 O1A         16.2660   -43.0410    21.9630 O.co2        1 ATP301   0.0000
    11 O2A         18.8100   -42.5300    22.2920 O.co2        1 ATP301  -1.0000
    12 O3A         17.4550   -42.3360    24.2340 O.3          1 ATP301   0.0000
    13 O5'         17.0110   -40.6580    22.3010 O.3          1 ATP301   0.0000
    14 C5'         17.7410   -39.5800    22.8950 C.3          1 ATP301   0.0000
    15 C4'         17.5830   -38.4520    21.9040 C.3          1 ATP301   0.0000
    16 O4'         18.3390   -37.3350    22.4860 O.3          1 ATP301   0.0000
    17 C3'         18.1450   -38.7820    20.4700 C.3          1 ATP301   0.0000
    18 O3'         17.0990   -38.7740    19.4900 O.3          1 ATP301   0.0000
    19 C2'         19.1790   -37.7610    20.3240 C.3          1 ATP301   0.0000
    20 O2'         19.2360   -37.2100    19.0400 O.3          1 ATP301   0.0000
    21 C1'         18.7410   -36.6840    21.3130 C.3          1 ATP301   0.0000
    22 N9          19.7810   -35.6890    21.6550 N.pl3        1 ATP301   0.0000
    23 C8          21.0450   -35.9170    22.0750 C.2          1 ATP301   0.0000
    24 N7          21.7290   -34.8010    22.2410 N.2          1 ATP301   0.0000
    25 C5          20.9040   -33.8120    21.9030 C.ar         1 ATP301   0.0000
    26 C6          21.0520   -32.3800    21.8200 C.ar         1 ATP301   0.0000
    27 N6          22.2570   -31.7690    22.1950 N.pl3        1 ATP301   0.0000
    28 N1          19.9230   -31.7020    21.4280 N.ar         1 ATP301   0.0000
    29 C2          18.7900   -32.3340    21.0010 C.ar         1 ATP301   0.0000
    30 N3          18.5880   -33.6060    21.0820 N.ar         1 ATP301   0.0000
    31 C4          19.6130   -34.4060    21.4820 C.ar         1 ATP301   0.0000
    32 H5'1        18.7045   -39.8220    23.0092 H            1 ATP301   0.0000
    33 H5'2        17.3521   -39.3322    23.7823 H            1 ATP301   0.0000
    34 H4'         16.6174   -38.2014    21.8346 H            1 ATP301   0.0000
    35 H3'         18.5745   -39.6850    20.4850 H            1 ATP301   0.0000
    36 H5          17.0057   -37.8539    19.1096 H            1 ATP301   0.0000
    37 H2'         20.0713   -38.1299    20.5841 H            1 ATP301   0.0000
    38 H7          18.3586   -36.7830    18.8213 H            1 ATP301   0.0000
    39 H1'         17.9528   -36.2020    20.9303 H            1 ATP301   0.0000
    40 H9          21.4198   -36.8291    22.2413 H            1 ATP301   0.0000
    41 H10         22.3536   -30.7755    22.1352 H            1 ATP301   0.0000
    42 H11         23.0198   -32.3268    22.5222 H            1 ATP301   0.0000
    43 H12         18.0674   -31.7725    20.5979 H            1 ATP301   0.0000
@<TRIPOS>BOND
     1    1    2      ar
     2    1    3      ar
     3    1    4      ar
     4    1    8       1
     5    5    6      ar
     6    5    7      ar
     7    5    8       1
     8    5   12       1
     9    9   10      ar
    10    9   11      ar
    11    9   12       1
    12    9   13       1
    13   13   14       1
    14   14   15       1
    15   15   16       1
    16   15   17       1
    17   16   21       1
    18   17   18       1
    19   17   19       1
    20   19   20       1
    21   19   21       1
    22   21   22       1
    23   22   23       1
    24   22   31       1
    25   23   24       2
    26   24   25       1
    27   25   26      ar
    28   25   31      ar
    29   26   27       1
    30   26   28      ar
    31   28   29      ar
    32   29   30      ar
    33   30   31      ar
    34   29   43       1
    35   27   42       1
    36   27   41       1
    37   23   40       1
    38   14   32       1
    39   14   33       1
    40   15   34       1
    41   17   35       1
    42   18   36       1
    43   19   37       1
    44   20   38       1
    45   21   39       1
@<TRIPOS>SUBSTRUCTURE
     1 ATP301      1 GROUP             4 B     ATP     0 **** ATP B 301
