@<TRIPOS>MOLECULE
1bjk_FAD_1_ligand
   84    89     1     0     0
SMALL
NO_CHARGES


@<TRIPOS>ATOM
     1 PA         -28.1900    37.8720   -10.0470 P.3          1 FAD304   0.0000
     2 O1A        -29.3190    38.0990    -9.1550 O.co2        1 FAD304   0.0000
     3 O2A        -28.3970    37.7830   -11.5060 O.co2        1 FAD304  -1.0000
     4 O5B        -27.2640    36.8950    -9.3250 O.3          1 FAD304   0.0000
     5 C5B        -27.2120    36.7350    -7.9300 C.3          1 FAD304   0.0000
     6 C4B        -27.5120    35.2720    -7.7440 C.3          1 FAD304   0.0000
     7 O4B        -26.6700    34.3580    -8.5120 O.3          1 FAD304   0.0000
     8 C3B        -27.3490    35.0310    -6.2630 C.3          1 FAD304   0.0000
     9 O3B        -28.6210    35.1440    -5.6490 O.3          1 FAD304   0.0000
    10 C2B        -26.9180    33.5540    -6.2840 C.3          1 FAD304   0.0000
    11 O2B        -28.0490    32.6450    -6.3640 O.3          1 FAD304   0.0000
    12 C1B        -26.0140    33.4920    -7.5590 C.3          1 FAD304   0.0000
    13 N9A        -24.4910    33.6110    -7.4820 N.pl3        1 FAD304   0.0000
    14 C8A        -23.7070    34.7470    -7.2950 C.2          1 FAD304   0.0000
    15 N7A        -22.4010    34.5140    -7.2790 N.2          1 FAD304   0.0000
    16 C5A        -22.2670    33.1260    -7.4680 C.ar         1 FAD304   0.0000
    17 C6A        -21.1140    32.2270    -7.5500 C.ar         1 FAD304   0.0000
    18 N6A        -19.8030    32.5760    -7.5210 N.pl3        1 FAD304   0.0000
    19 N1A        -21.3680    30.9050    -7.6880 N.ar         1 FAD304   0.0000
    20 C2A        -22.6590    30.5090    -7.7870 C.ar         1 FAD304   0.0000
    21 N3A        -23.8080    31.2320    -7.7670 N.ar         1 FAD304   0.0000
    22 C4A        -23.5360    32.5680    -7.5900 C.ar         1 FAD304   0.0000
    23 N1         -22.7410    45.2840    -5.8100 N.2          1 FAD304   0.0000
    24 C2         -21.8460    46.0500    -6.5150 C.2          1 FAD304   0.0000
    25 O2         -21.3170    45.6430    -7.5530 O.2          1 FAD304   0.0000
    26 N3         -21.5220    47.2920    -5.9990 N.pl3        1 FAD304   0.0000
    27 C4         -22.0530    47.8030    -4.8220 C.2          1 FAD304   0.0000
    28 O4         -21.7010    48.9170    -4.4450 O.2          1 FAD304   0.0000
    29 C4X        -23.0620    46.9300    -4.1210 C.2          1 FAD304   0.0000
    30 N5         -23.6140    47.3140    -2.9900 N.2          1 FAD304   0.0000
    31 C5X        -24.4940    46.5510    -2.3590 C.ar         1 FAD304   0.0000
    32 C6         -25.0900    47.0240    -1.1820 C.ar         1 FAD304   0.0000
    33 C7         -25.9610    46.2990    -0.5080 C.ar         1 FAD304   0.0000
    34 C7M        -26.5680    46.8750     0.7600 C.3          1 FAD304   0.0000
    35 C8         -26.3330    44.9980    -1.0050 C.ar         1 FAD304   0.0000
    36 C8M        -27.3350    44.0890    -0.3050 C.3          1 FAD304   0.0000
    37 C9         -25.7650    44.5120    -2.1300 C.ar         1 FAD304   0.0000
    38 C9A        -24.8220    45.2660    -2.8640 C.ar         1 FAD304   0.0000
    39 N10        -24.2010    44.8180    -4.0270 N.pl3        1 FAD304   0.0000
    40 C10        -23.3590    45.6610    -4.6810 C.2          1 FAD304   0.0000
    41 C1'        -24.8060    43.5110    -4.7500 C.3          1 FAD304   0.0000
    42 C2'        -25.8100    43.9620    -5.6900 C.3          1 FAD304   0.0000
    43 O2'        -26.8360    43.8090    -4.5840 O.3          1 FAD304   0.0000
    44 C3'        -26.3190    42.8070    -6.5620 C.3          1 FAD304   0.0000
    45 O3'        -26.5840    41.6640    -5.7050 O.3          1 FAD304   0.0000
    46 C4'        -25.1290    42.1040    -7.3150 C.3          1 FAD304   0.0000
    47 O4'        -24.7520    43.1770    -8.1990 O.3          1 FAD304   0.0000
    48 C5'        -25.4900    40.9400    -8.2160 C.3          1 FAD304   0.0000
    49 O5'        -26.7860    41.2150    -8.8780 O.3          1 FAD304   0.0000
    50 P          -27.1490    40.7560   -10.3450 P.3          1 FAD304   0.0000
    51 O1P        -25.9610    41.1300   -11.1740 O.co2        1 FAD304   0.0000
    52 O2P        -28.3230    41.3740   -10.5340 O.co2        1 FAD304  -1.0000
    53 O3P        -27.5000    39.1800   -10.1900 O.3          1 FAD304   0.0000
    54 H5B1       -27.8995    37.3030    -7.4775 H            1 FAD304   0.0000
    55 H5B2       -26.3052    36.9635    -7.5758 H            1 FAD304   0.0000
    56 H4B        -28.4673    35.1086    -7.9904 H            1 FAD304   0.0000
    57 H3B        -26.6636    35.6284    -5.8466 H            1 FAD304   0.0000
    58 H5         -29.0667    34.2489    -5.6384 H            1 FAD304   0.0000
    59 H2B        -26.3733    33.3476    -5.4712 H            1 FAD304   0.0000
    60 H7         -27.8198    31.7866    -5.9051 H            1 FAD304   0.0000
    61 H1B        -26.1676    32.5725    -7.9209 H            1 FAD304   0.0000
    62 H8A        -24.0959    35.6614    -7.1823 H            1 FAD304   0.0000
    63 H6A1       -19.0964    31.8712    -7.5850 H            1 FAD304   0.0000
    64 H6A2       -19.5434    33.5379    -7.4357 H            1 FAD304   0.0000
    65 H2A        -22.7871    29.5228    -7.8920 H            1 FAD304   0.0000
    66 H13        -20.8670    47.8548    -6.5032 H            1 FAD304   0.0000
    67 H14        -24.8487    47.9340    -0.8450 H            1 FAD304   0.0000
    68 H7M1       -27.2048    46.2130     1.1553 H            1 FAD304   0.0000
    69 H7M2       -25.8411    47.0721     1.4178 H            1 FAD304   0.0000
    70 H7M3       -27.0577    47.7191     0.5415 H            1 FAD304   0.0000
    71 H8M1       -27.4373    43.2417    -0.8262 H            1 FAD304   0.0000
    72 H8M2       -27.0062    43.8766     0.6152 H            1 FAD304   0.0000
    73 H8M3       -28.2193    44.5519    -0.2444 H            1 FAD304   0.0000
    74 H21        -26.0173    43.5989    -2.4503 H            1 FAD304   0.0000
    75 H1'1       -25.2211    42.9059    -4.0706 H            1 FAD304   0.0000
    76 H1'2       -24.0805    43.0212    -5.2336 H            1 FAD304   0.0000
    77 H2'        -25.6963    44.8616    -6.1117 H            1 FAD304   0.0000
    78 H25        -26.9090    44.6672    -4.0759 H            1 FAD304   0.0000
    79 H3'        -27.0846    43.0544    -7.1558 H            1 FAD304   0.0000
    80 H27        -27.3237    41.1174    -6.0976 H            1 FAD304   0.0000
    81 H4'        -24.3869    41.8667    -6.6882 H            1 FAD304   0.0000
    82 H29        -23.8022    43.4357    -8.0230 H            1 FAD304   0.0000
    83 H5'1       -25.5646    40.1057    -7.6697 H            1 FAD304   0.0000
    84 H5'2       -24.7794    40.8219    -8.9096 H            1 FAD304   0.0000
@<TRIPOS>BOND
     1    1    2      ar
     2    1    3      ar
     3    1    4       1
     4    1   53       1
     5    4    5       1
     6    5    6       1
     7    6    7       1
     8    6    8       1
     9    7   12       1
    10    8    9       1
    11    8   10       1
    12   10   11       1
    13   10   12       1
    14   12   13       1
    15   13   14       1
    16   13   22       1
    17   14   15       2
    18   15   16       1
    19   16   17      ar
    20   16   22      ar
    21   17   18       1
    22   17   19      ar
    23   19   20      ar
    24   20   21      ar
    25   21   22      ar
    26   23   24       1
    27   23   40       2
    28   24   25       2
    29   24   26       1
    30   26   27       1
    31   27   28       2
    32   27   29       1
    33   29   30       2
    34   29   40       1
    35   30   31       1
    36   31   32      ar
    37   31   38      ar
    38   32   33      ar
    39   33   34       1
    40   33   35      ar
    41   35   36       1
    42   35   37      ar
    43   37   38      ar
    44   38   39       1
    45   39   40       1
    46   39   41       1
    47   41   42       1
    48   42   43       1
    49   42   44       1
    50   44   45       1
    51   44   46       1
    52   46   47       1
    53   46   48       1
    54   48   49       1
    55   49   50       1
    56   50   51      ar
    57   50   52      ar
    58   50   53       1
    59   48   84       1
    60    5   54       1
    61    5   55       1
    62    6   56       1
    63    8   57       1
    64    9   58       1
    65   10   59       1
    66   11   60       1
    67   12   61       1
    68   14   62       1
    69   18   63       1
    70   18   64       1
    71   20   65       1
    72   26   66       1
    73   32   67       1
    74   34   68       1
    75   34   69       1
    76   34   70       1
    77   36   71       1
    78   36   72       1
    79   36   73       1
    80   37   74       1
    81   41   75       1
    82   41   76       1
    83   42   77       1
    84   43   78       1
    85   44   79       1
    86   45   80       1
    87   46   81       1
    88   47   82       1
    89   48   83       1
@<TRIPOS>SUBSTRUCTURE
     1 FAD304      1 GROUP             4 A     FAD     0 **** FAD A 304
