@<TRIPOS>MOLECULE
3mx2_TTP_2_ligand
   42    43     1     0     0
SMALL
NO_CHARGES


@<TRIPOS>ATOM
     1 PA         -14.5380   -28.1300   -16.8740 P.3          1 TTP800   0.0000
     2 O1A        -13.7290   -26.9000   -16.9910 O.co2        1 TTP800   0.0000
     3 O2A        -13.9190   -29.4930   -16.8420 O.co2        1 TTP800  -1.0000
     4 O3A        -16.2320   -28.0270   -17.0200 O.3          1 TTP800   0.0000
     5 PB         -17.0730   -28.5910   -15.7280 P.3          1 TTP800   0.0000
     6 O1B        -16.2120   -28.5610   -14.5830 O.co2        1 TTP800   0.0000
     7 O2B        -18.3760   -27.9120   -15.6590 O.co2        1 TTP800  -1.0000
     8 O3B        -17.3130   -30.0760   -16.1850 O.3          1 TTP800   0.0000
     9 PG         -18.3520   -31.0090   -15.5230 P.3          1 TTP800   0.0000
    10 O1G        -17.9320   -32.4240   -15.5680 O.co2        1 TTP800   0.0000
    11 O2G        -18.4520   -30.6070   -13.9570 O.co2        1 TTP800  -1.0000
    12 O3G        -19.7710   -30.6820   -16.2160 O.co2        1 TTP800  -1.0000
    13 O5'        -14.7040   -28.2060   -18.4700 O.3          1 TTP800   0.0000
    14 C5'        -13.6270   -28.4980   -19.3640 C.3          1 TTP800   0.0000
    15 C4'        -14.1300   -28.7490   -20.8100 C.3          1 TTP800   0.0000
    16 O4'        -14.6760   -27.6050   -21.4610 O.3          1 TTP800   0.0000
    17 C3'        -12.9250   -29.0630   -21.6710 C.3          1 TTP800   0.0000
    18 O3'        -12.4180   -30.3650   -21.3450 O.3          1 TTP800   0.0000
    19 C2'        -13.5620   -28.9910   -23.0740 C.3          1 TTP800   0.0000
    20 C1'        -14.7040   -27.9420   -22.8760 C.3          1 TTP800   0.0000
    21 N1         -14.3910   -26.7900   -23.7620 N.pl3        1 TTP800   0.0000
    22 C2         -15.4120   -26.1930   -24.5500 C.2          1 TTP800   0.0000
    23 O2         -16.5850   -26.5680   -24.5230 O.2          1 TTP800   0.0000
    24 N3         -15.1140   -25.1370   -25.3780 N.pl3        1 TTP800   0.0000
    25 C4         -13.8100   -24.6620   -25.4620 C.2          1 TTP800   0.0000
    26 O4         -13.6260   -23.7230   -26.2230 O.2          1 TTP800   0.0000
    27 C5         -12.7790   -25.2340   -24.7010 C.2          1 TTP800   0.0000
    28 C5M        -11.3300   -24.7180   -24.7840 C.3          1 TTP800   0.0000
    29 C6         -13.0620   -26.2970   -23.8480 C.2          1 TTP800   0.0000
    30 H5'1       -13.1506   -29.3156   -19.0406 H            1 TTP800   0.0000
    31 H5'2       -12.9937   -27.7241   -19.3714 H            1 TTP800   0.0000
    32 H4'        -14.7815   -29.5074   -20.8282 H            1 TTP800   0.0000
    33 H3'        -12.2165   -28.3656   -21.5633 H            1 TTP800   0.0000
    34 H5         -11.4724   -30.2851   -21.0296 H            1 TTP800   0.0000
    35 H2'1       -13.9310   -29.8788   -23.3490 H            1 TTP800   0.0000
    36 H2'2       -12.8999   -28.6796   -23.7556 H            1 TTP800   0.0000
    37 H1'        -15.5881   -28.3396   -23.1215 H            1 TTP800   0.0000
    38 H9         -15.8367   -24.7095   -25.9211 H            1 TTP800   0.0000
    39 H5M1       -10.7500   -25.2530   -24.1697 H            1 TTP800   0.0000
    40 H5M2       -10.9964   -24.8105   -25.7222 H            1 TTP800   0.0000
    41 H5M3       -11.3029   -23.7555   -24.5140 H            1 TTP800   0.0000
    42 H13        -12.3349   -26.7104   -23.2999 H            1 TTP800   0.0000
@<TRIPOS>BOND
     1    1    2      ar
     2    1    3      ar
     3    1    4       1
     4    1   13       1
     5    4    5       1
     6    5    6      ar
     7    5    7      ar
     8    5    8       1
     9    8    9       1
    10    9   10      ar
    11    9   11      ar
    12    9   12      ar
    13   13   14       1
    14   14   15       1
    15   15   16       1
    16   15   17       1
    17   16   20       1
    18   17   18       1
    19   17   19       1
    20   19   20       1
    21   20   21       1
    22   21   22       1
    23   21   29       1
    24   22   23       2
    25   22   24       1
    26   24   25       1
    27   25   26       2
    28   25   27       1
    29   27   28       1
    30   27   29       2
    31   29   42       1
    32   28   41       1
    33   28   40       1
    34   28   39       1
    35   14   30       1
    36   14   31       1
    37   15   32       1
    38   17   33       1
    39   18   34       1
    40   19   35       1
    41   19   36       1
    42   20   37       1
    43   24   38       1
@<TRIPOS>SUBSTRUCTURE
     1 TTP800      1 GROUP             4 B     TTP     0 **** TTP B 800
