@<TRIPOS>MOLECULE
4psx_COA_1_ligand
   80    82     1     0     0
SMALL
NO_CHARGES


@<TRIPOS>ATOM
     1 N1A         -7.3240   -36.3460   -33.6230 N.ar         1 COA401   0.0000
     2 C2A         -8.4450   -35.6600   -33.2780 C.ar         1 COA401   0.0000
     3 N3A         -9.5170   -36.3280   -32.7590 N.ar         1 COA401   0.0000
     4 C4A         -9.3870   -37.6040   -32.3120 C.ar         1 COA401   0.0000
     5 C5A         -8.1450   -38.2870   -32.5290 C.ar         1 COA401   0.0000
     6 C6A         -7.1140   -37.6030   -33.2000 C.ar         1 COA401   0.0000
     7 N6A         -5.8430   -38.2860   -33.4840 N.pl3        1 COA401   0.0000
     8 N7A         -8.2730   -39.5130   -32.0020 N.2          1 COA401   0.0000
     9 C8A         -9.5010   -39.6440   -31.4720 C.2          1 COA401   0.0000
    10 N9A        -10.2110   -38.5040   -31.6360 N.pl3        1 COA401   0.0000
    11 C1B        -11.6100   -38.2720   -31.1810 C.3          1 COA401   0.0000
    12 C2B        -12.4070   -39.5410   -31.1240 C.3          1 COA401   0.0000
    13 O2B        -13.0910   -39.8080   -32.3110 O.3          1 COA401   0.0000
    14 C3B        -13.3270   -39.3850   -29.9780 C.3          1 COA401   0.0000
    15 O3B        -14.6160   -39.0210   -30.3670 O.3          1 COA401   0.0000
    16 P3B        -15.8160   -40.0390   -30.6100 P.3          1 COA401   0.0000
    17 O7A        -16.3940   -40.5160   -29.2890 O.co2        1 COA401   0.0000
    18 O8A        -15.3260   -41.2390   -31.4020 O.co2        1 COA401  -1.0000
    19 O9A        -16.9150   -39.3480   -31.4130 O.co2        1 COA401  -1.0000
    20 C4B        -12.6800   -38.3140   -29.1180 C.3          1 COA401   0.0000
    21 O4B        -11.7100   -37.6500   -29.9170 O.3          1 COA401   0.0000
    22 C5B        -12.1260   -38.8220   -27.7900 C.3          1 COA401   0.0000
    23 O5B        -12.4030   -37.9500   -26.7070 O.3          1 COA401   0.0000
    24 P1A        -13.0780   -38.4100   -25.3400 P.3          1 COA401   0.0000
    25 O1A        -13.9840   -39.6140   -25.5380 O.co2        1 COA401   0.0000
    26 O2A        -13.9740   -37.2700   -24.8630 O.co2        1 COA401  -1.0000
    27 O3A        -12.0060   -38.7150   -24.1810 O.3          1 COA401   0.0000
    28 P2A        -10.7570   -39.7230   -24.2110 P.3          1 COA401   0.0000
    29 O4A        -11.1610   -41.1570   -24.0030 O.co2        1 COA401   0.0000
    30 O5A         -9.9640   -39.5510   -25.4740 O.co2        1 COA401  -1.0000
    31 O6A         -9.7730   -39.2570   -23.0630 O.3          1 COA401   0.0000
    32 CBP         -8.9800   -37.6820   -21.6040 C.3          1 COA401   0.0000
    33 CCP         -9.8130   -37.8760   -22.8560 C.3          1 COA401   0.0000
    34 CDP         -9.4790   -38.6150   -20.5160 C.3          1 COA401   0.0000
    35 CEP         -7.6120   -38.1040   -22.0510 C.3          1 COA401   0.0000
    36 CAP         -9.0300   -36.2340   -21.1220 C.3          1 COA401   0.0000
    37 OAP         -9.9590   -35.5500   -21.9230 O.3          1 COA401   0.0000
    38 C9P         -9.1990   -36.0260   -19.5910 C.2          1 COA401   0.0000
    39 O9P        -10.2680   -36.1890   -19.0140 O.2          1 COA401   0.0000
    40 N8P         -8.0360   -35.6160   -18.8350 N.am         1 COA401   0.0000
    41 C7P         -8.0860   -35.4050   -17.4150 C.3          1 COA401   0.0000
    42 C6P         -7.9840   -33.9410   -17.0900 C.3          1 COA401   0.0000
    43 C5P         -8.9570   -33.6330   -15.9430 C.2          1 COA401   0.0000
    44 O5P         -9.4130   -32.4980   -15.8260 O.2          1 COA401   0.0000
    45 N4P         -9.3350   -34.7060   -15.0060 N.am         1 COA401   0.0000
    46 C3P        -10.2500   -34.5310   -13.8850 C.3          1 COA401   0.0000
    47 C2P        -10.8130   -35.8870   -13.4920 C.3          1 COA401   0.0000
    48 S1P        -10.7360   -36.1920   -11.7420 S.3          1 COA401   0.0000
    49 H2A         -8.4849   -34.6687   -33.4038 H            1 COA401   0.0000
    50 H6A1        -5.6962   -39.2222   -33.1647 H            1 COA401   0.0000
    51 H6A2        -5.1255   -37.8142   -33.9965 H            1 COA401   0.0000
    52 H8A         -9.8421   -40.4682   -31.0199 H            1 COA401   0.0000
    53 H1B        -12.0484   -37.6703   -31.8487 H            1 COA401   0.0000
    54 H2B        -11.7856   -40.3012   -30.9346 H            1 COA401   0.0000
    55 H7         -13.9283   -40.3150   -32.1064 H            1 COA401   0.0000
    56 H3B        -13.3657   -40.2427   -29.4653 H            1 COA401   0.0000
    57 H4B        -13.3899   -37.6436   -28.9019 H            1 COA401   0.0000
    58 H5B1       -11.1345   -38.9206   -27.8747 H            1 COA401   0.0000
    59 H5B2       -12.5342   -39.7137   -27.5942 H            1 COA401   0.0000
    60 HCP1       -10.7519   -37.5630   -22.7128 H            1 COA401   0.0000
    61 HCP2        -9.4130   -37.3866   -23.6309 H            1 COA401   0.0000
    62 HDP1        -8.9300   -38.4875   -19.6899 H            1 COA401   0.0000
    63 HDP2       -10.4368   -38.4100   -20.3146 H            1 COA401   0.0000
    64 HDP3        -9.3990   -39.5622   -20.8266 H            1 COA401   0.0000
    65 HEP1        -6.9701   -38.0146   -21.2894 H            1 COA401   0.0000
    66 HEP2        -7.6394   -39.0567   -22.3538 H            1 COA401   0.0000
    67 HEP3        -7.3144   -37.5221   -22.8078 H            1 COA401   0.0000
    68 HAP         -8.1383   -35.8432   -21.3502 H            1 COA401   0.0000
    69 H21        -10.8668   -35.6127   -21.5082 H            1 COA401   0.0000
    70 H8P         -7.1705   -35.4751   -19.3157 H            1 COA401   0.0000
    71 H7P1        -7.3252   -35.8904   -16.9843 H            1 COA401   0.0000
    72 H7P2        -8.9512   -35.7601   -17.0609 H            1 COA401   0.0000
    73 H6P1        -8.2266   -33.3984   -17.8942 H            1 COA401   0.0000
    74 H6P2        -7.0498   -33.7213   -16.8091 H            1 COA401   0.0000
    75 H4P         -8.9381   -35.6127   -15.1485 H            1 COA401   0.0000
    76 H3P1       -10.9968   -33.9225   -14.1532 H            1 COA401   0.0000
    77 H3P2        -9.7588   -34.1341   -13.1097 H            1 COA401   0.0000
    78 H2P1       -10.2897   -36.5976   -13.9624 H            1 COA401   0.0000
    79 H2P2       -11.7693   -35.9307   -13.7811 H            1 COA401   0.0000
    80 H1P        -11.4924   -36.7887   -11.4740 H            1 COA401   0.0000
@<TRIPOS>BOND
     1    1    2      ar
     2    1    6      ar
     3    2    3      ar
     4    3    4      ar
     5    4    5      ar
     6    4   10       1
     7    5    6      ar
     8    5    8       1
     9    6    7       1
    10    8    9       2
    11    9   10       1
    12   10   11       1
    13   11   12       1
    14   11   21       1
    15   12   13       1
    16   12   14       1
    17   14   15       1
    18   14   20       1
    19   15   16       1
    20   16   17      ar
    21   16   18      ar
    22   16   19      ar
    23   20   21       1
    24   20   22       1
    25   22   23       1
    26   23   24       1
    27   24   25      ar
    28   24   26      ar
    29   24   27       1
    30   27   28       1
    31   28   29      ar
    32   28   30      ar
    33   28   31       1
    34   31   33       1
    35   32   33       1
    36   32   34       1
    37   32   35       1
    38   32   36       1
    39   36   37       1
    40   36   38       1
    41   38   39       2
    42   38   40      am
    43   40   41       1
    44   41   42       1
    45   42   43       1
    46   43   44       2
    47   43   45      am
    48   45   46       1
    49   46   47       1
    50   47   48       1
    51    2   49       1
    52    7   50       1
    53    7   51       1
    54    9   52       1
    55   11   53       1
    56   12   54       1
    57   13   55       1
    58   14   56       1
    59   48   80       1
    60   47   79       1
    61   20   57       1
    62   22   58       1
    63   22   59       1
    64   47   78       1
    65   46   77       1
    66   33   60       1
    67   33   61       1
    68   34   62       1
    69   34   63       1
    70   34   64       1
    71   35   65       1
    72   35   66       1
    73   35   67       1
    74   36   68       1
    75   37   69       1
    76   40   70       1
    77   41   71       1
    78   41   72       1
    79   42   73       1
    80   42   74       1
    81   45   75       1
    82   46   76       1
@<TRIPOS>SUBSTRUCTURE
     1 COA401      1 GROUP             4 A     COA     0 **** COA A 401
