@<TRIPOS>MOLECULE
3hja_NAD_1_ligand
   70    74     1     0     0
SMALL
NO_CHARGES


@<TRIPOS>ATOM
     1 PA          -0.9880    40.0410    64.3130 P.3          1 NAD337   0.0000
     2 O1A         -1.2260    38.6800    64.9410 O.co2        1 NAD337   0.0000
     3 O2A         -0.1890    40.1320    63.0410 O.co2        1 NAD337  -1.0000
     4 O5B         -0.2250    40.9340    65.4160 O.3          1 NAD337   0.0000
     5 C5B         -0.5550    40.8710    66.8030 C.3          1 NAD337   0.0000
     6 C4B          0.6830    41.3580    67.5630 C.3          1 NAD337   0.0000
     7 O4B          0.3780    41.6350    68.9360 O.3          1 NAD337   0.0000
     8 C3B          1.7560    40.2780    67.5680 C.3          1 NAD337   0.0000
     9 O3B          3.0140    40.9030    67.3150 O.3          1 NAD337   0.0000
    10 C2B          1.7220    39.6850    68.9610 C.3          1 NAD337   0.0000
    11 O2B          3.0150    39.2430    69.3770 O.3          1 NAD337   0.0000
    12 C1B          1.2770    40.8980    69.7700 C.3          1 NAD337   0.0000
    13 N9A          0.5960    40.5650    71.0410 N.pl3        1 NAD337   0.0000
    14 C8A         -0.2710    39.5720    71.2870 C.2          1 NAD337   0.0000
    15 N7A         -0.6630    39.6570    72.5870 N.2          1 NAD337   0.0000
    16 C5A         -0.0210    40.7100    73.1450 C.ar         1 NAD337   0.0000
    17 C6A         -0.0150    41.2910    74.4110 C.ar         1 NAD337   0.0000
    18 N6A         -0.7590    40.7860    75.4220 N.pl3        1 NAD337   0.0000
    19 N1A          0.7630    42.3680    74.6410 N.ar         1 NAD337   0.0000
    20 C2A          1.5080    42.9180    73.6660 C.ar         1 NAD337   0.0000
    21 N3A          1.5240    42.3820    72.4330 N.ar         1 NAD337   0.0000
    22 C4A          0.7700    41.2760    72.1560 C.ar         1 NAD337   0.0000
    23 O3          -2.4240    40.7490    64.1320 O.3          1 NAD337   0.0000
    24 PN          -2.8070    41.9030    63.0810 P.3          1 NAD337   0.0000
    25 O1N         -3.2490    41.3260    61.7720 O.co2        1 NAD337   0.0000
    26 O2N         -1.7360    42.9800    63.0980 O.co2        1 NAD337  -1.0000
    27 O5D         -4.1150    42.4670    63.7840 O.3          1 NAD337   0.0000
    28 C5D         -4.0600    43.2420    64.9900 C.3          1 NAD337   0.0000
    29 C4D         -5.4500    43.8140    65.2640 C.3          1 NAD337   0.0000
    30 O4D         -5.8600    44.6640    64.1790 O.3          1 NAD337   0.0000
    31 C3D         -6.5060    42.7200    65.3540 C.3          1 NAD337   0.0000
    32 O3D         -7.4730    43.1850    66.2900 O.3          1 NAD337   0.0000
    33 C2D         -7.1520    42.6890    63.9810 C.3          1 NAD337   0.0000
    34 O2D         -8.5130    42.2140    63.9640 O.3          1 NAD337   0.0000
    35 C1D         -7.0710    44.1650    63.5990 C.3          1 NAD337   0.0000
    36 N1N         -7.0490    44.4050    62.1580 N.ar         1 NAD337   1.0000
    37 C2N         -6.3410    43.6050    61.3250 C.ar         1 NAD337   0.0000
    38 C3N         -6.3290    43.8750    59.9560 C.ar         1 NAD337   0.0000
    39 C7N         -5.5550    43.0220    58.9930 C.2          1 NAD337   0.0000
    40 O7N         -5.9300    42.9930    57.7280 O.2          1 NAD337   0.0000
    41 N7N         -4.4980    42.3050    59.3710 N.am         1 NAD337   0.0000
    42 C4N         -7.0440    44.9590    59.4680 C.ar         1 NAD337   0.0000
    43 C5N         -7.7730    45.7570    60.3390 C.ar         1 NAD337   0.0000
    44 C6N         -7.7550    45.4610    61.6980 C.ar         1 NAD337   0.0000
    45 H5B1        -0.7740    39.9309    67.0643 H            1 NAD337   0.0000
    46 H5B2        -1.3369    41.4625    67.0000 H            1 NAD337   0.0000
    47 H4B          1.0408    42.1834    67.1263 H            1 NAD337   0.0000
    48 H3B          1.5609    39.5797    66.8793 H            1 NAD337   0.0000
    49 H5           3.2006    41.5778    68.0291 H            1 NAD337   0.0000
    50 H2B          1.0515    38.9456    69.0217 H            1 NAD337   0.0000
    51 H7           3.4898    39.9911    69.8407 H            1 NAD337   0.0000
    52 H1B          2.0754    41.4664    69.9687 H            1 NAD337   0.0000
    53 H8A         -0.5773    38.8858    70.6272 H            1 NAD337   0.0000
    54 H6A1        -0.7388    41.2199    76.3227 H            1 NAD337   0.0000
    55 H6A2        -1.3290    39.9788    75.2685 H            1 NAD337   0.0000
    56 H2A          2.0548    43.7326    73.8596 H            1 NAD337   0.0000
    57 H5D1        -3.4036    43.9886    64.8813 H            1 NAD337   0.0000
    58 H5D2        -3.7789    42.6594    65.7526 H            1 NAD337   0.0000
    59 H4D         -5.4359    44.3386    66.1153 H            1 NAD337   0.0000
    60 H3D         -6.1182    41.8355    65.6134 H            1 NAD337   0.0000
    61 H17         -8.1960    42.5014    66.3897 H            1 NAD337   0.0000
    62 H2D         -6.5939    42.1445    63.3548 H            1 NAD337   0.0000
    63 H19         -8.6999    41.7692    63.0881 H            1 NAD337   0.0000
    64 H1D         -7.8489    44.6494    63.9992 H            1 NAD337   0.0000
    65 H2N         -5.8303    42.8260    61.6888 H            1 NAD337   0.0000
    66 H7N1        -4.0064    41.7480    58.7016 H            1 NAD337   0.0000
    67 H7N2        -4.1961    42.3238    60.3241 H            1 NAD337   0.0000
    68 H4N         -7.0343    45.1654    58.4896 H            1 NAD337   0.0000
    69 H5N         -8.3027    46.5323    59.9949 H            1 NAD337   0.0000
    70 H6N         -8.2676    46.0332    62.3382 H            1 NAD337   0.0000
@<TRIPOS>BOND
     1    1    2      ar
     2    1    3      ar
     3    1    4       1
     4    1   23       1
     5    4    5       1
     6    5    6       1
     7    6    7       1
     8    6    8       1
     9    7   12       1
    10    8    9       1
    11    8   10       1
    12   10   11       1
    13   10   12       1
    14   12   13       1
    15   13   14       1
    16   13   22       1
    17   14   15       2
    18   15   16       1
    19   16   17      ar
    20   16   22      ar
    21   17   18       1
    22   17   19      ar
    23   19   20      ar
    24   20   21      ar
    25   21   22      ar
    26   23   24       1
    27   24   25      ar
    28   24   26      ar
    29   24   27       1
    30   27   28       1
    31   28   29       1
    32   29   30       1
    33   29   31       1
    34   30   35       1
    35   31   32       1
    36   31   33       1
    37   33   34       1
    38   33   35       1
    39   35   36       1
    40   36   37      ar
    41   36   44      ar
    42   37   38      ar
    43   38   39       1
    44   38   42      ar
    45   39   40       2
    46   39   41      am
    47   42   43      ar
    48   43   44      ar
    49   44   70       1
    50    5   45       1
    51    5   46       1
    52    6   47       1
    53    8   48       1
    54    9   49       1
    55   10   50       1
    56   11   51       1
    57   12   52       1
    58   14   53       1
    59   18   54       1
    60   18   55       1
    61   20   56       1
    62   43   69       1
    63   28   57       1
    64   28   58       1
    65   29   59       1
    66   31   60       1
    67   32   61       1
    68   33   62       1
    69   34   63       1
    70   35   64       1
    71   37   65       1
    72   41   66       1
    73   41   67       1
    74   42   68       1
@<TRIPOS>SUBSTRUCTURE
     1 NAD337      1 GROUP             4 A     NAD     0 **** NAD A 337
