@<TRIPOS>MOLECULE
1th8_ADP_1_ligand
   39    41     1     0     0
SMALL
NO_CHARGES


@<TRIPOS>ATOM
     1 PB          17.4850    97.7170   -19.0800 P.3          1 ADP200   0.0000
     2 O1B         18.7920    98.1260   -18.4460 O.co2        1 ADP200   0.0000
     3 O2B         16.9700    96.3850   -18.6500 O.co2        1 ADP200  -1.0000
     4 O3B         16.4270    98.8410   -18.9100 O.co2        1 ADP200  -1.0000
     5 PA          18.9990    97.6490   -21.5760 P.3          1 ADP200   0.0000
     6 O1A         19.9480    98.7150   -21.1160 O.co2        1 ADP200   0.0000
     7 O2A         18.6120    97.6650   -22.9880 O.co2        1 ADP200  -1.0000
     8 O3A         17.6640    97.7070   -20.6390 O.3          1 ADP200   0.0000
     9 O5'         19.6120    96.2460   -21.1250 O.3          1 ADP200   0.0000
    10 C5'         18.8770    95.0440   -21.4300 C.3          1 ADP200   0.0000
    11 C4'         19.2760    93.8720   -20.5770 C.3          1 ADP200   0.0000
    12 O4'         20.6150    93.4310   -21.0320 O.3          1 ADP200   0.0000
    13 C3'         19.5110    94.1090   -19.1010 C.3          1 ADP200   0.0000
    14 O3'         18.2710    94.0620   -18.3760 O.3          1 ADP200   0.0000
    15 C2'         20.4760    92.9310   -18.7020 C.3          1 ADP200   0.0000
    16 O2'         19.7330    91.6890   -18.4770 O.3          1 ADP200   0.0000
    17 C1'         21.3730    92.8270   -19.9540 C.3          1 ADP200   0.0000
    18 N9          22.7100    93.5840   -19.7740 N.pl3        1 ADP200   0.0000
    19 C8          23.0960    94.6770   -20.4130 C.2          1 ADP200   0.0000
    20 N7          24.2570    95.0810   -20.0620 N.2          1 ADP200   0.0000
    21 C5          24.6930    94.1650   -19.1120 C.ar         1 ADP200   0.0000
    22 C6          25.9040    94.0170   -18.3010 C.ar         1 ADP200   0.0000
    23 N6          26.9710    94.8720   -18.3880 N.pl3        1 ADP200   0.0000
    24 N1          25.9740    92.9570   -17.4430 N.ar         1 ADP200   0.0000
    25 C2          24.9420    92.1080   -17.3510 C.ar         1 ADP200   0.0000
    26 N3          23.7830    92.1730   -18.0510 N.ar         1 ADP200   0.0000
    27 C4          23.7200    93.2270   -18.9160 C.ar         1 ADP200   0.0000
    28 H5'1        19.0372    94.8083   -22.3885 H            1 ADP200   0.0000
    29 H5'2        17.9033    95.2227   -21.2889 H            1 ADP200   0.0000
    30 H4'         18.6181    93.1287   -20.6977 H            1 ADP200   0.0000
    31 H3'         19.9623    94.9900   -18.9590 H            1 ADP200   0.0000
    32 H5          17.8716    94.9780   -18.3389 H            1 ADP200   0.0000
    33 H2'         21.0170    93.1723   -17.8964 H            1 ADP200   0.0000
    34 H7          19.2484    91.4342   -19.3138 H            1 ADP200   0.0000
    35 H1'         21.5531    91.8658   -20.1632 H            1 ADP200   0.0000
    36 H9          22.5363    95.1397   -21.1005 H            1 ADP200   0.0000
    37 H10         27.7755    94.7278   -17.8119 H            1 ADP200   0.0000
    38 H11         26.9452    95.6403   -19.0276 H            1 ADP200   0.0000
    39 H12         25.0357    91.3525   -16.7026 H            1 ADP200   0.0000
@<TRIPOS>BOND
     1    1    2      ar
     2    1    3      ar
     3    1    4      ar
     4    1    8       1
     5    5    6      ar
     6    5    7      ar
     7    5    8       1
     8    5    9       1
     9    9   10       1
    10   10   11       1
    11   11   12       1
    12   11   13       1
    13   12   17       1
    14   13   14       1
    15   13   15       1
    16   15   16       1
    17   15   17       1
    18   17   18       1
    19   18   19       1
    20   18   27       1
    21   19   20       2
    22   20   21       1
    23   21   22      ar
    24   21   27      ar
    25   22   23       1
    26   22   24      ar
    27   24   25      ar
    28   25   26      ar
    29   26   27      ar
    30   25   39       1
    31   23   38       1
    32   23   37       1
    33   10   28       1
    34   10   29       1
    35   11   30       1
    36   13   31       1
    37   14   32       1
    38   15   33       1
    39   16   34       1
    40   17   35       1
    41   19   36       1
@<TRIPOS>SUBSTRUCTURE
     1 ADP200      1 GROUP             4 A     ADP     0 **** ADP A 200
