@<TRIPOS>MOLECULE
2zwa_SAH_2_ligand
   46    48     1     0     0
SMALL
NO_CHARGES


@<TRIPOS>ATOM
     1 N          -31.3530   -21.7030    15.4860 N.4          1 SAH801   1.0000
     2 CA         -31.2780   -22.8060    16.4520 C.3          1 SAH801   0.0000
     3 CB         -30.5380   -24.0040    15.8370 C.3          1 SAH801   0.0000
     4 CG         -29.0800   -23.7380    15.4630 C.3          1 SAH801   0.0000
     5 SD         -28.2340   -25.1880    14.7800 S.3          1 SAH801   0.0000
     6 C          -30.6700   -22.3340    17.7850 C.2          1 SAH801   0.0000
     7 O          -30.0870   -21.2520    17.8660 O.co2        1 SAH801   0.0000
     8 OXT        -30.7500   -22.9960    18.8260 O.co2        1 SAH801  -1.0000
     9 C5'        -28.2150   -24.4700    13.1120 C.3          1 SAH801   0.0000
    10 C4'        -29.3450   -24.9910    12.2230 C.3          1 SAH801   0.0000
    11 O4'        -29.2370   -24.3820    10.9400 O.3          1 SAH801   0.0000
    12 C3'        -29.2570   -26.5020    12.0080 C.3          1 SAH801   0.0000
    13 O3'        -30.4420   -27.1380    12.4410 O.3          1 SAH801   0.0000
    14 C2'        -29.0770   -26.6620    10.5040 C.3          1 SAH801   0.0000
    15 O2'        -29.7790   -27.7640     9.9430 O.3          1 SAH801   0.0000
    16 C1'        -29.5860   -25.3360     9.9700 C.3          1 SAH801   0.0000
    17 N9         -29.0010   -25.0300     8.6590 N.pl3        1 SAH801   0.0000
    18 C8         -27.6890   -24.7540     8.3510 C.2          1 SAH801   0.0000
    19 N7         -27.6140   -24.5460     7.0130 N.2          1 SAH801   0.0000
    20 C5         -28.8490   -24.6880     6.4790 C.ar         1 SAH801   0.0000
    21 C6         -29.3380   -24.5870     5.1810 C.ar         1 SAH801   0.0000
    22 N6         -28.5240   -24.2930     4.1640 N.pl3        1 SAH801   0.0000
    23 N1         -30.6840   -24.7890     4.9530 N.ar         1 SAH801   0.0000
    24 C2         -31.5400   -25.0890     5.9890 C.ar         1 SAH801   0.0000
    25 N3         -31.0510   -25.1880     7.2770 N.ar         1 SAH801   0.0000
    26 C4         -29.7310   -24.9890     7.5080 C.ar         1 SAH801   0.0000
    27 H1         -32.1829   -21.1703    15.6521 H            1 SAH801   0.0000
    28 H2         -30.5520   -21.1135    15.5904 H            1 SAH801   0.0000
    29 HA         -32.2150   -23.1003    16.6404 H            1 SAH801   0.0000
    30 HB1        -31.0260   -24.2783    15.0084 H            1 SAH801   0.0000
    31 HB2        -30.5570   -24.7536    16.4986 H            1 SAH801   0.0000
    32 HG1        -28.5910   -23.4437    16.2842 H            1 SAH801   0.0000
    33 HG2        -29.0563   -23.0071    14.7810 H            1 SAH801   0.0000
    34 H5'1       -27.3412   -24.6924    12.6795 H            1 SAH801   0.0000
    35 H5'2       -28.3044   -23.4772    13.1916 H            1 SAH801   0.0000
    36 H4'        -30.2281   -24.7603    12.6316 H            1 SAH801   0.0000
    37 H3'        -28.4663   -26.8754    12.4931 H            1 SAH801   0.0000
    38 H12        -31.2197   -26.7826    11.9224 H            1 SAH801   0.0000
    39 H2'        -28.1030   -26.7501    10.2954 H            1 SAH801   0.0000
    40 H14        -30.6927   -27.4695     9.6630 H            1 SAH801   0.0000
    41 H1'        -30.5818   -25.3736     9.8868 H            1 SAH801   0.0000
    42 H16        -26.9273   -24.7139     8.9977 H            1 SAH801   0.0000
    43 H17        -28.8889   -24.2235     3.2355 H            1 SAH801   0.0000
    44 H18        -27.5496   -24.1424     4.3309 H            1 SAH801   0.0000
    45 H19        -32.5129   -25.2348     5.8094 H            1 SAH801   0.0000
    46 H20        -31.3752   -22.0739    14.5576 H            1 SAH801   0.0000
@<TRIPOS>BOND
     1    1    2       1
     2    2    3       1
     3    2    6       1
     4    3    4       1
     5    4    5       1
     6    5    9       1
     7    6    7      ar
     8    6    8      ar
     9    9   10       1
    10   10   11       1
    11   10   12       1
    12   11   16       1
    13   12   13       1
    14   12   14       1
    15   14   15       1
    16   14   16       1
    17   16   17       1
    18   17   18       1
    19   17   26       1
    20   18   19       2
    21   19   20       1
    22   20   21      ar
    23   20   26      ar
    24   21   22       1
    25   21   23      ar
    26   23   24      ar
    27   24   25      ar
    28   25   26      ar
    29    1   27       1
    30    1   28       1
    31    2   29       1
    32    3   30       1
    33    3   31       1
    34    4   32       1
    35    4   33       1
    36    1   46       1
    37    9   34       1
    38    9   35       1
    39   10   36       1
    40   12   37       1
    41   13   38       1
    42   14   39       1
    43   15   40       1
    44   16   41       1
    45   18   42       1
    46   22   43       1
    47   22   44       1
    48   24   45       1
@<TRIPOS>SUBSTRUCTURE
     1 SAH801      1 GROUP             4 B     SAH     0 **** SAH B 801
