@<TRIPOS>MOLECULE
1tiq_COA_1_ligand
  121   123     2     0     0
SMALL
NO_CHARGES


@<TRIPOS>ATOM
     1 N1A         15.8020    70.0020    65.9690 N.ar         1 COA301   0.0000
     2 C2A         17.1910    70.2640    66.2700 C.ar         1 COA301   0.0000
     3 N3A         18.1110    69.5060    65.4480 N.ar         1 COA301   0.0000
     4 C4A         17.6420    68.5650    64.4230 C.ar         1 COA301   0.0000
     5 C5A         16.2800    68.3260    64.1230 C.ar         1 COA301   0.0000
     6 C6A         15.3310    69.0630    64.9410 C.ar         1 COA301   0.0000
     7 N6A         13.9420    68.8860    64.7280 N.pl3        1 COA301   0.0000
     8 N7A         16.1590    67.3960    63.1090 N.2          1 COA301   0.0000
     9 C8A         17.4760    67.0720    62.7760 C.2          1 COA301   0.0000
    10 N9A         18.3900    67.7890    63.5790 N.pl3        1 COA301   0.0000
    11 C1B         19.8120    67.7740    63.5990 C.3          1 COA301   0.0000
    12 C2B         20.5230    66.5460    64.2340 C.3          1 COA301   0.0000
    13 O2B         20.7730    66.5980    65.6060 O.3          1 COA301   0.0000
    14 C3B         21.7470    66.3200    63.3790 C.3          1 COA301   0.0000
    15 O3B         22.9110    66.8680    64.0490 O.3          1 COA301   0.0000
    16 P3B         24.3920    66.5390    63.6630 P.3          1 COA301   0.0000
    17 O7A         24.6960    65.1160    63.6830 O.co2        1 COA301   0.0000
    18 O8A         24.7030    67.0540    62.3160 O.co2        1 COA301  -1.0000
    19 O9A         25.2040    67.2940    64.6150 O.co2        1 COA301  -1.0000
    20 C4B         21.4950    66.9870    62.1000 C.3          1 COA301   0.0000
    21 O4B         20.3970    67.9130    62.2770 O.3          1 COA301   0.0000
    22 C5B         21.3020    65.6900    61.2920 C.3          1 COA301   0.0000
    23 O5B         19.9310    65.4670    60.9890 O.3          1 COA301   0.0000
    24 P1A         19.3000    64.1000    60.3310 P.3          1 COA301   0.0000
    25 O1A         19.9320    63.7740    59.1060 O.co2        1 COA301   0.0000
    26 O2A         19.3640    62.9330    61.2650 O.co2        1 COA301  -1.0000
    27 O3A         17.7970    64.5470    60.1890 O.3          1 COA301   0.0000
    28 P2A         16.6730    63.6840    59.5540 P.3          1 COA301   0.0000
    29 O4A         17.1660    62.4000    59.0930 O.co2        1 COA301   0.0000
    30 O5A         15.6410    63.4660    60.5060 O.co2        1 COA301  -1.0000
    31 O6A         15.9630    64.3510    58.5060 O.3          1 COA301   0.0000
    32 CBP         14.3600    65.6470    57.3850 C.3          1 COA301   0.0000
    33 CCP         15.9210    65.5710    57.8270 C.3          1 COA301   0.0000
    34 CDP         14.7810    65.4880    55.8780 C.3          1 COA301   0.0000
    35 CEP         13.6790    67.0720    57.6150 C.3          1 COA301   0.0000
    36 CAP         13.4430    64.3090    57.9520 C.3          1 COA301   0.0000
    37 OAP         13.1910    64.7680    59.3220 O.3          1 COA301   0.0000
    38 C9P         12.1350    64.2170    57.1570 C.2          1 COA301   0.0000
    39 O9P         12.1860    63.8170    56.0150 O.2          1 COA301   0.0000
    40 N8P         10.9230    64.6000    57.7780 N.am         1 COA301   0.0000
    41 C7P          9.5740    64.6040    57.2380 C.3          1 COA301   0.0000
    42 C6P          9.3350    65.4020    55.8950 C.3          1 COA301   0.0000
    43 C5P          9.8050    66.8490    55.8340 C.2          1 COA301   0.0000
    44 O5P          9.4850    67.6770    56.6960 O.2          1 COA301   0.0000
    45 N4P         10.6280    67.1770    54.7250 N.am         1 COA301   0.0000
    46 C3P         11.2130    68.4710    54.4150 C.3          1 COA301   0.0000
    47 C2P         10.1170    69.5720    54.0520 C.3          1 COA301   0.0000
    48 S1P          8.7310    68.8770    53.0750 S.3          1 COA301   0.0000
    49 H2A         17.4878    70.9060    66.9769 H            1 COA301   0.0000
    50 H6A1        13.6208    68.2473    64.0288 H            1 COA301   0.0000
    51 H6A2        13.2825    69.3997    65.2768 H            1 COA301   0.0000
    52 H8A         17.7369    66.4197    62.0643 H            1 COA301   0.0000
    53 H1B         20.0993    68.5746    64.1248 H            1 COA301   0.0000
    54 H2B         19.9224    65.7607    64.0840 H            1 COA301   0.0000
    55 H7          21.7573    66.5285    65.7683 H            1 COA301   0.0000
    56 H3B         21.8758    65.3399    63.2279 H            1 COA301   0.0000
    57 H4B         22.3138    67.4715    61.7919 H            1 COA301   0.0000
    58 H5B1        21.6465    64.9188    61.8273 H            1 COA301   0.0000
    59 H5B2        21.8170    65.7592    60.4376 H            1 COA301   0.0000
    60 HCP1        16.5257    65.5661    57.0306 H            1 COA301   0.0000
    61 HCP2        16.1673    66.3314    58.4279 H            1 COA301   0.0000
    62 HDP1        13.9644    65.4983    55.3009 H            1 COA301   0.0000
    63 HDP2        15.3822    66.2437    55.6183 H            1 COA301   0.0000
    64 HDP3        15.2641    64.6209    55.7566 H            1 COA301   0.0000
    65 HEP1        12.7242    67.0367    57.3198 H            1 COA301   0.0000
    66 HEP2        13.7192    67.3078    58.5860 H            1 COA301   0.0000
    67 HEP3        14.1669    67.7643    57.0833 H            1 COA301   0.0000
    68 HAP         13.9628    63.4551    57.9275 H            1 COA301   0.0000
    69 H21         13.9266    64.4506    59.9205 H            1 COA301   0.0000
    70 H8P         11.0066    64.9128    58.7241 H            1 COA301   0.0000
    71 H7P1         8.9730    64.9985    57.9332 H            1 COA301   0.0000
    72 H7P2         9.3134    63.6528    57.0730 H            1 COA301   0.0000
    73 H6P1         8.3507    65.4007    55.7188 H            1 COA301   0.0000
    74 H6P2         9.8049    64.9051    55.1654 H            1 COA301   0.0000
    75 H4P         10.8277    66.4347    54.0854 H            1 COA301   0.0000
    76 H3P1        11.8298    68.3645    53.6351 H            1 COA301   0.0000
    77 H3P2        11.7318    68.7861    55.2097 H            1 COA301   0.0000
    78 H2P1        10.5537    70.2974    53.5199 H            1 COA301   0.0000
    79 H2P2         9.7521    69.9547    54.9008 H            1 COA301   0.0000
    80 O3A          3.1390    70.8370    44.0210 O.co2        2 COA303   0.0000
    81 P2A          3.1190    72.1510    44.6000 P.3          2 COA303   0.0000
    82 O4A          1.7650    72.6850    44.5470 O.co2        2 COA303  -1.0000
    83 O5A          4.1370    73.0630    43.8530 O.co2        2 COA303  -1.0000
    84 O6A          3.5030    71.8630    45.9800 O.3          2 COA303   0.0000
    85 CBP          3.0600    72.0630    48.3400 C.3          2 COA303   0.0000
    86 CCP          4.0130    72.5180    47.1090 C.3          2 COA303   0.0000
    87 CDP          1.8800    71.0580    47.9840 C.3          2 COA303   0.0000
    88 CEP          4.2200    71.2580    49.0380 C.3          2 COA303   0.0000
    89 CAP          2.5520    73.3770    49.2880 C.3          2 COA303   0.0000
    90 OAP          2.0140    72.7350    50.4900 O.3          2 COA303   0.0000
    91 C9P          3.6650    74.3720    49.6580 C.2          2 COA303   0.0000
    92 O9P          4.1200    75.0930    48.7800 O.2          2 COA303   0.0000
    93 N8P          4.1120    74.4170    50.9920 N.am         2 COA303   0.0000
    94 C7P          5.1820    75.2210    51.5340 C.3          2 COA303   0.0000
    95 C6P          6.6330    74.6810    51.2780 C.3          2 COA303   0.0000
    96 C5P          6.9130    73.2610    51.7100 C.2          2 COA303   0.0000
    97 O5P          6.7790    72.8980    52.8850 O.2          2 COA303   0.0000
    98 N4P          7.3230    72.3870    50.6740 N.am         2 COA303   0.0000
    99 C3P          7.6760    70.9920    50.7780 C.3          2 COA303   0.0000
   100 C2P          9.2250    70.8180    51.0780 C.3          2 COA303   0.0000
   101 S1P          9.7060    69.0540    51.2000 S.3          2 COA303   0.0000
   102 H32          3.9746    73.5095    46.9851 H            2 COA303   0.0000
   103 H33          4.9586    72.2395    47.2774 H            2 COA303   0.0000
   104 H34          1.3606    70.8470    48.8121 H            2 COA303   0.0000
   105 H35          1.2746    71.4803    47.3094 H            2 COA303   0.0000
   106 H36          2.2628    70.2147    47.6067 H            2 COA303   0.0000
   107 H37          3.8782    70.8455    49.8824 H            2 COA303   0.0000
   108 H38          4.5437    70.5389    48.4230 H            2 COA303   0.0000
   109 H39          4.9746    71.8784    49.2517 H            2 COA303   0.0000
   110 H40          1.8172    73.8627    48.8146 H            2 COA303   0.0000
   111 H41          2.4980    71.8754    50.6538 H            2 COA303   0.0000
   112 H42          3.6333    73.8236    51.6391 H            2 COA303   0.0000
   113 H43          5.0478    75.2854    52.5229 H            2 COA303   0.0000
   114 H44          5.1172    76.1329    51.1287 H            2 COA303   0.0000
   115 H45          7.2693    75.2778    51.7669 H            2 COA303   0.0000
   116 H46          6.8093    74.7394    50.2954 H            2 COA303   0.0000
   117 H47          7.3741    72.7855    49.7583 H            2 COA303   0.0000
   118 H48          7.4563    70.5340    49.9166 H            2 COA303   0.0000
   119 H49          7.1504    70.5761    51.5202 H            2 COA303   0.0000
   120 H50          9.4394    71.2718    51.9430 H            2 COA303   0.0000
   121 H51          9.7469    71.2447    50.3394 H            2 COA303   0.0000
@<TRIPOS>BOND
     1    1    2      ar
     2    1    6      ar
     3    2    3      ar
     4    3    4      ar
     5    4    5      ar
     6    4   10       1
     7    5    6      ar
     8    5    8       1
     9    6    7       1
    10    8    9       2
    11    9   10       1
    12   10   11       1
    13   11   12       1
    14   11   21       1
    15   12   13       1
    16   12   14       1
    17   14   15       1
    18   14   20       1
    19   15   16       1
    20   16   17      ar
    21   16   18      ar
    22   16   19      ar
    23   20   21       1
    24   20   22       1
    25   22   23       1
    26   23   24       1
    27   24   25      ar
    28   24   26      ar
    29   24   27       1
    30   27   28       1
    31   28   29      ar
    32   28   30      ar
    33   28   31       1
    34   31   33       1
    35   32   33       1
    36   32   34       1
    37   32   35       1
    38   32   36       1
    39   36   37       1
    40   36   38       1
    41   38   39       2
    42   38   40      am
    43   40   41       1
    44   41   42       1
    45   42   43       1
    46   43   44       2
    47   43   45      am
    48   45   46       1
    49   46   47       1
    50   47   48       1
    51    2   49       1
    52    7   50       1
    53    7   51       1
    54    9   52       1
    55   11   53       1
    56   12   54       1
    57   13   55       1
    58   14   56       1
    59  100  120       1
    60   99  119       1
    61   20   57       1
    62   22   58       1
    63   22   59       1
    64   99  118       1
    65   98  117       1
    66   33   60       1
    67   33   61       1
    68   34   62       1
    69   34   63       1
    70   34   64       1
    71   35   65       1
    72   35   66       1
    73   35   67       1
    74   36   68       1
    75   37   69       1
    76   40   70       1
    77   41   71       1
    78   41   72       1
    79   42   73       1
    80   42   74       1
    81   45   75       1
    82   46   76       1
    83   46   77       1
    84   47   78       1
    85   47   79       1
    86  100  121       1
    87   48  101       1
    88   80   81      ar
    89   81   82      ar
    90   81   83      ar
    91   81   84       1
    92   84   86       1
    93   85   86       1
    94   85   87       1
    95   85   88       1
    96   85   89       1
    97   89   90       1
    98   89   91       1
    99   91   92       2
   100   91   93      am
   101   93   94       1
   102   94   95       1
   103   95   96       1
   104   96   97       2
   105   96   98      am
   106   98   99       1
   107   99  100       1
   108  100  101       1
   109   95  116       1
   110   95  115       1
   111   86  102       1
   112   86  103       1
   113   87  104       1
   114   87  105       1
   115   87  106       1
   116   88  107       1
   117   88  108       1
   118   88  109       1
   119   89  110       1
   120   90  111       1
   121   93  112       1
   122   94  113       1
   123   94  114       1
@<TRIPOS>SUBSTRUCTURE
     1 COA301      1 GROUP             4 A     COA     0 **** COA A 301
     2 COA303     80 GROUP             4 A     COA     0 **** COA A 303
