@<TRIPOS>MOLECULE
4h0u_UMP_1_ligand
   31    32     1     0     0
SMALL
NO_CHARGES


@<TRIPOS>ATOM
     1 N1          -9.6390    18.0050    30.8360 N.pl3        1 UMP301   0.0000
     2 C2          -8.8530    16.9520    31.2500 C.2          1 UMP301   0.0000
     3 N3          -8.9810    15.7290    30.6500 N.pl3        1 UMP301   0.0000
     4 C4          -9.8940    15.5340    29.6540 C.2          1 UMP301   0.0000
     5 C5         -10.7100    16.5800    29.2410 C.2          1 UMP301   0.0000
     6 C6         -10.5830    17.8280    29.8510 C.2          1 UMP301   0.0000
     7 O2          -8.0180    17.1080    32.1520 O.2          1 UMP301   0.0000
     8 O4          -9.9670    14.4180    29.1490 O.2          1 UMP301   0.0000
     9 C1'         -9.5020    19.2700    31.5680 C.3          1 UMP301   0.0000
    10 C2'         -8.5050    20.2500    30.9920 C.3          1 UMP301   0.0000
    11 C3'         -9.1720    21.5810    31.2860 C.3          1 UMP301   0.0000
    12 C4'        -10.6370    21.2390    31.1760 C.3          1 UMP301   0.0000
    13 O3'         -8.9130    22.0160    32.6220 O.3          1 UMP301   0.0000
    14 O4'        -10.7500    19.9020    31.5970 O.3          1 UMP301   0.0000
    15 C5'        -11.0940    21.3760    29.7400 C.3          1 UMP301   0.0000
    16 O5'        -11.3770    22.7250    29.5630 O.3          1 UMP301   0.0000
    17 P          -10.6410    23.6270    28.4580 P.3          1 UMP301   0.0000
    18 OP1        -11.0320    23.1840    27.0450 O.co2        1 UMP301   0.0000
    19 OP2        -11.0910    25.0430    28.7720 O.co2        1 UMP301  -1.0000
    20 OP3         -9.1730    23.5480    28.6490 O.co2        1 UMP301  -1.0000
    21 H1          -8.3998    14.9702    30.9441 H            1 UMP301   0.0000
    22 H2         -11.3817    16.4395    28.5136 H            1 UMP301   0.0000
    23 H3         -11.1727    18.5870    29.5749 H            1 UMP301   0.0000
    24 H1'         -9.2322    19.0622    32.5082 H            1 UMP301   0.0000
    25 H2'1        -8.3854    20.1121    30.0088 H            1 UMP301   0.0000
    26 H2'2        -7.6184    20.1783    31.4490 H            1 UMP301   0.0000
    27 H3'         -8.9084    22.2769    30.6179 H            1 UMP301   0.0000
    28 H4'        -11.1772    21.8356    31.7695 H            1 UMP301   0.0000
    29 H9          -7.9272    22.1215    32.7530 H            1 UMP301   0.0000
    30 H5'1       -11.9125    20.8241    29.5803 H            1 UMP301   0.0000
    31 H5'2       -10.3696    21.0866    29.1144 H            1 UMP301   0.0000
@<TRIPOS>BOND
     1    1    2       1
     2    1    6       1
     3    1    9       1
     4    2    3       1
     5    2    7       2
     6    3    4       1
     7    4    5       1
     8    4    8       2
     9    5    6       2
    10    9   10       1
    11    9   14       1
    12   10   11       1
    13   11   12       1
    14   11   13       1
    15   12   14       1
    16   12   15       1
    17   15   16       1
    18   16   17       1
    19   17   18      ar
    20   17   19      ar
    21   17   20      ar
    22    3   21       1
    23    5   22       1
    24    6   23       1
    25    9   24       1
    26   10   25       1
    27   10   26       1
    28   11   27       1
    29   12   28       1
    30   13   29       1
    31   15   30       1
    32   15   31       1
@<TRIPOS>SUBSTRUCTURE
     1 UMP301      1 GROUP             4 A     UMP     0 **** UMP A 301
