@<TRIPOS>MOLECULE
2waj_SNB_1_ligand
   33    35     1     0     0
SMALL
NO_CHARGES


@<TRIPOS>ATOM
     1 CL          18.6030     6.6010    33.1110 Cl           1 SNB1401   0.0000
     2 C16         19.9190     7.6810    32.5780 C.ar         1 SNB1401   0.0000
     3 C2          21.0810     7.1450    32.0540 C.ar         1 SNB1401   0.0000
     4 O           21.1920     5.7840    31.9400 O.3          1 SNB1401   0.0000
     5 C1          22.2100     5.2400    31.0890 C.3          1 SNB1401   0.0000
     6 C15         19.7610     9.0620    32.6930 C.ar         1 SNB1401   0.0000
     7 C14         20.7880     9.9010    32.2710 C.ar         1 SNB1401   0.0000
     8 C4          21.9650     9.3710    31.7450 C.ar         1 SNB1401   0.0000
     9 C3          22.1160     7.9900    31.6280 C.ar         1 SNB1401   0.0000
    10 C7          20.6710    11.3810    32.3810 C.2          1 SNB1401   0.0000
    11 N           21.4980    12.0690    31.7140 N.2          1 SNB1401   0.0000
    12 C6          22.4980    11.6030    30.7510 C.3          1 SNB1401   0.0000
    13 C5          23.0720    10.2950    31.2860 C.3          1 SNB1401   0.0000
    14 C8          19.6410    12.0270    33.2790 C.ar         1 SNB1401   0.0000
    15 C13         19.4250    11.5260    34.5530 C.ar         1 SNB1401   0.0000
    16 C12         18.4910    12.1230    35.3870 C.ar         1 SNB1401   0.0000
    17 BR          18.2520    11.4290    37.1280 Br           1 SNB1401   0.0000
    18 C11         17.7410    13.2130    34.9450 C.ar         1 SNB1401   0.0000
    19 C10         17.9310    13.7160    33.6700 C.ar         1 SNB1401   0.0000
    20 C9          18.8990    13.1210    32.8560 C.ar         1 SNB1401   0.0000
    21 H1          22.1640     4.2413    31.1107 H            1 SNB1401   0.0000
    22 H2          22.0675     5.5599    30.1523 H            1 SNB1401   0.0000
    23 H3          23.1083     5.5394    31.4105 H            1 SNB1401   0.0000
    24 H4          18.9195     9.4448    33.0743 H            1 SNB1401   0.0000
    25 H5          22.9552     7.6053    31.2436 H            1 SNB1401   0.0000
    26 H6          23.2255    12.2827    30.6579 H            1 SNB1401   0.0000
    27 H7          22.0695    11.4493    29.8607 H            1 SNB1401   0.0000
    28 H8          23.5949     9.8458    30.5616 H            1 SNB1401   0.0000
    29 H9          23.6751    10.4933    32.0586 H            1 SNB1401   0.0000
    30 H10         19.9435    10.7325    34.8717 H            1 SNB1401   0.0000
    31 H11         17.0646    13.6318    35.5509 H            1 SNB1401   0.0000
    32 H12         17.3881    14.4876    33.3385 H            1 SNB1401   0.0000
    33 H13         19.0616    13.4943    31.9426 H            1 SNB1401   0.0000
@<TRIPOS>BOND
     1    1    2       1
     2    2    3      ar
     3    2    6      ar
     4    3    4       1
     5    3    9      ar
     6    4    5       1
     7    6    7      ar
     8    7    8      ar
     9    7   10       1
    10    8    9      ar
    11    8   13       1
    12   10   11       2
    13   10   14       1
    14   11   12       1
    15   12   13       1
    16   14   15      ar
    17   14   20      ar
    18   15   16      ar
    19   16   17       1
    20   16   18      ar
    21   18   19      ar
    22   19   20      ar
    23    5   21       1
    24    5   22       1
    25    5   23       1
    26    6   24       1
    27    9   25       1
    28   12   26       1
    29   12   27       1
    30   13   28       1
    31   13   29       1
    32   15   30       1
    33   18   31       1
    34   19   32       1
    35   20   33       1
@<TRIPOS>SUBSTRUCTURE
     1 SNB1401     1 GROUP             4 A     SNB     0 **** SNB A1401
