@<TRIPOS>MOLECULE
3r1r_ATP_2_ligand
   43    45     1     0     0
SMALL
NO_CHARGES


@<TRIPOS>ATOM
     1 PG         -43.1810   109.4860    39.9180 P.3          1 ATP762   0.0000
     2 O1G        -44.1470   110.5600    39.5810 O.co2        1 ATP762   0.0000
     3 O2G        -43.8680   108.1700    39.9300 O.co2        1 ATP762  -1.0000
     4 O3G        -42.6020   109.7110    41.2620 O.co2        1 ATP762  -1.0000
     5 PB         -41.1880   108.1630    38.3050 P.3          1 ATP762   0.0000
     6 O1B        -40.5130   107.4230    39.4020 O.co2        1 ATP762   0.0000
     7 O2B        -42.0260   107.2250    37.5020 O.co2        1 ATP762  -1.0000
     8 O3B        -41.9880   109.4500    38.8320 O.3          1 ATP762   0.0000
     9 PA         -39.9960   108.8870    35.7480 P.3          1 ATP762   0.0000
    10 O1A        -39.7720   107.5550    35.1440 O.co2        1 ATP762   0.0000
    11 O2A        -41.1390   109.5770    35.1020 O.co2        1 ATP762  -1.0000
    12 O3A        -40.1080   108.8700    37.3550 O.3          1 ATP762   0.0000
    13 O5'        -38.6190   109.7080    35.6790 O.3          1 ATP762   0.0000
    14 C5'        -37.9140   109.7740    36.9490 C.3          1 ATP762   0.0000
    15 C4'        -37.0370   111.0120    36.9760 C.3          1 ATP762   0.0000
    16 O4'        -37.8110   112.1870    36.6830 O.3          1 ATP762   0.0000
    17 C3'        -36.3110   111.3090    38.2770 C.3          1 ATP762   0.0000
    18 O3'        -35.0730   112.0030    38.0210 O.3          1 ATP762   0.0000
    19 C2'        -37.3890   112.1530    39.0040 C.3          1 ATP762   0.0000
    20 O2'        -36.7630   113.1090    39.8870 O.3          1 ATP762   0.0000
    21 C1'        -38.0610   112.9000    37.8430 C.3          1 ATP762   0.0000
    22 N9         -39.4650   113.1830    38.0110 N.pl3        1 ATP762   0.0000
    23 C8         -40.5200   112.3510    37.8630 C.2          1 ATP762   0.0000
    24 N7         -41.6940   112.8120    38.1020 N.2          1 ATP762   0.0000
    25 C5         -41.4440   114.0560    38.4470 C.ar         1 ATP762   0.0000
    26 C6         -42.3360   115.0310    38.8130 C.ar         1 ATP762   0.0000
    27 N6         -43.6600   114.8810    38.8900 N.pl3        1 ATP762   0.0000
    28 N1         -41.8100   116.2330    39.1390 N.ar         1 ATP762   0.0000
    29 C2         -40.4460   116.3960    39.0610 C.ar         1 ATP762   0.0000
    30 N3         -39.5230   115.5290    38.7260 N.ar         1 ATP762   0.0000
    31 C4         -40.0970   114.3500    38.4190 C.ar         1 ATP762   0.0000
    32 H5'1       -37.3442   108.9593    37.0568 H            1 ATP762   0.0000
    33 H5'2       -38.5768   109.8185    37.6964 H            1 ATP762   0.0000
    34 H4'        -36.3481   110.9136    36.2578 H            1 ATP762   0.0000
    35 H3'        -36.1368   110.4617    38.7787 H            1 ATP762   0.0000
    36 H5         -34.6101   112.1896    38.8876 H            1 ATP762   0.0000
    37 H2'        -38.0405   111.5733    39.4934 H            1 ATP762   0.0000
    38 H7         -37.4678   113.6468    40.3496 H            1 ATP762   0.0000
    39 H1'        -37.5942   113.7797    37.7520 H            1 ATP762   0.0000
    40 H9         -40.3895   111.4022    37.5752 H            1 ATP762   0.0000
    41 H10        -44.2351   115.6507    39.1672 H            1 ATP762   0.0000
    42 H11        -44.0769   113.9989    38.6705 H            1 ATP762   0.0000
    43 H12        -40.1106   117.3088    39.2939 H            1 ATP762   0.0000
@<TRIPOS>BOND
     1    1    2      ar
     2    1    3      ar
     3    1    4      ar
     4    1    8       1
     5    5    6      ar
     6    5    7      ar
     7    5    8       1
     8    5   12       1
     9    9   10      ar
    10    9   11      ar
    11    9   12       1
    12    9   13       1
    13   13   14       1
    14   14   15       1
    15   15   16       1
    16   15   17       1
    17   16   21       1
    18   17   18       1
    19   17   19       1
    20   19   20       1
    21   19   21       1
    22   21   22       1
    23   22   23       1
    24   22   31       1
    25   23   24       2
    26   24   25       1
    27   25   26      ar
    28   25   31      ar
    29   26   27       1
    30   26   28      ar
    31   28   29      ar
    32   29   30      ar
    33   30   31      ar
    34   29   43       1
    35   27   42       1
    36   27   41       1
    37   23   40       1
    38   14   32       1
    39   14   33       1
    40   15   34       1
    41   17   35       1
    42   18   36       1
    43   19   37       1
    44   20   38       1
    45   21   39       1
@<TRIPOS>SUBSTRUCTURE
     1 ATP762      1 GROUP             4 A     ATP     0 **** ATP A 762
