@<TRIPOS>MOLECULE
2eba_FAD_3_ligand
   84    89     1     0     0
SMALL
NO_CHARGES


@<TRIPOS>ATOM
     1 PA          43.0150    -6.0690   -24.7610 P.3          1 FAD3001   0.0000
     2 O1A         42.6830    -7.0940   -23.7140 O.co2        1 FAD3001   0.0000
     3 O2A         43.5280    -6.4570   -26.1260 O.co2        1 FAD3001  -1.0000
     4 O5B         44.0320    -5.0080   -24.0760 O.3          1 FAD3001   0.0000
     5 C5B         43.9510    -4.5080   -22.8410 C.3          1 FAD3001   0.0000
     6 C4B         45.1810    -3.8740   -22.2390 C.3          1 FAD3001   0.0000
     7 O4B         46.4210    -4.8530   -22.4330 O.3          1 FAD3001   0.0000
     8 C3B         45.7620    -2.8500   -23.3560 C.3          1 FAD3001   0.0000
     9 O3B         46.5450    -1.9330   -22.6130 O.3          1 FAD3001   0.0000
    10 C2B         46.8890    -3.5130   -24.2110 C.3          1 FAD3001   0.0000
    11 O2B         47.9170    -2.6610   -24.4900 O.3          1 FAD3001   0.0000
    12 C1B         47.4550    -4.4450   -23.1880 C.3          1 FAD3001   0.0000
    13 N9A         48.0500    -5.6440   -23.9420 N.pl3        1 FAD3001   0.0000
    14 C8A         47.3290    -6.4740   -24.7350 C.2          1 FAD3001   0.0000
    15 N7A         48.2090    -7.3950   -25.2070 N.2          1 FAD3001   0.0000
    16 C5A         49.5040    -7.1050   -24.7010 C.ar         1 FAD3001   0.0000
    17 C6A         50.7940    -7.6860   -24.8530 C.ar         1 FAD3001   0.0000
    18 N6A         50.9720    -8.7620   -25.6190 N.pl3        1 FAD3001   0.0000
    19 N1A         51.8460    -7.1230   -24.1860 N.ar         1 FAD3001   0.0000
    20 C2A         51.6700    -6.0110   -23.3760 C.ar         1 FAD3001   0.0000
    21 N3A         50.4610    -5.4350   -23.2300 N.ar         1 FAD3001   0.0000
    22 C4A         49.3410    -5.9670   -23.8770 C.ar         1 FAD3001   0.0000
    23 N1          37.8050    -3.2750   -33.6420 N.2          1 FAD3001   0.0000
    24 C2          37.5670    -3.6190   -34.9500 C.2          1 FAD3001   0.0000
    25 O2          38.0560    -4.6660   -35.4250 O.2          1 FAD3001   0.0000
    26 N3          36.7880    -2.8200   -35.7380 N.pl3        1 FAD3001   0.0000
    27 C4          36.2300    -1.6710   -35.2430 C.2          1 FAD3001   0.0000
    28 O4          35.5220    -0.9790   -35.9890 O.2          1 FAD3001   0.0000
    29 C4X         36.4580    -1.2940   -33.8970 C.2          1 FAD3001   0.0000
    30 N5          35.9010    -0.1490   -33.3560 N.2          1 FAD3001   0.0000
    31 C5X         36.1100     0.1940   -32.0330 C.ar         1 FAD3001   0.0000
    32 C6          35.5090     1.3630   -31.4990 C.ar         1 FAD3001   0.0000
    33 C7          35.7050     1.7140   -30.1380 C.ar         1 FAD3001   0.0000
    34 C7M         35.0280     2.9690   -29.6460 C.3          1 FAD3001   0.0000
    35 C8          36.5190     0.8920   -29.2930 C.ar         1 FAD3001   0.0000
    36 C8M         36.7760     1.1980   -27.8310 C.3          1 FAD3001   0.0000
    37 C9          37.1130    -0.2630   -29.8240 C.ar         1 FAD3001   0.0000
    38 C9A         36.9270    -0.6460   -31.2010 C.ar         1 FAD3001   0.0000
    39 N10         37.4990    -1.8010   -31.7580 N.pl3        1 FAD3001   0.0000
    40 C10         37.2730    -2.1320   -33.0820 C.2          1 FAD3001   0.0000
    41 C1'         38.3310    -2.7040   -30.9600 C.3          1 FAD3001   0.0000
    42 C2'         39.6620    -2.1280   -30.5620 C.3          1 FAD3001   0.0000
    43 O2'         40.5620    -2.2720   -31.6520 O.3          1 FAD3001   0.0000
    44 C3'         40.0840    -2.8600   -29.3180 C.3          1 FAD3001   0.0000
    45 O3'         39.4810    -2.2230   -28.1910 O.3          1 FAD3001   0.0000
    46 C4'         41.5930    -2.9110   -29.1030 C.3          1 FAD3001   0.0000
    47 O4'         42.1380    -4.0080   -29.8440 O.3          1 FAD3001   0.0000
    48 C5'         41.9140    -3.1300   -27.6480 C.3          1 FAD3001   0.0000
    49 O5'         41.7200    -4.4940   -27.3490 O.3          1 FAD3001   0.0000
    50 P           40.7310    -5.0440   -26.2050 P.3          1 FAD3001   0.0000
    51 O1P         39.6760    -4.0190   -25.9000 O.co2        1 FAD3001   0.0000
    52 O2P         40.2320    -6.4050   -26.6200 O.co2        1 FAD3001  -1.0000
    53 O3P         41.7040    -5.1320   -24.9200 O.3          1 FAD3001   0.0000
    54 H5B1        43.6789    -5.2568   -22.2366 H            1 FAD3001   0.0000
    55 H5B2        43.2343    -3.8107   -22.8512 H            1 FAD3001   0.0000
    56 H4B         45.0678    -3.4948   -21.3206 H            1 FAD3001   0.0000
    57 H3B         45.0497    -2.4128   -23.9051 H            1 FAD3001   0.0000
    58 H5          45.9671    -1.4681   -21.9423 H            1 FAD3001   0.0000
    59 H2B         46.5403    -3.9849   -25.0208 H            1 FAD3001   0.0000
    60 H7          48.7665    -3.1812   -24.5782 H            1 FAD3001   0.0000
    61 H1B         48.1495    -3.9894   -22.6312 H            1 FAD3001   0.0000
    62 H8A         46.3501    -6.4195   -24.9321 H            1 FAD3001   0.0000
    63 H6A1        51.8839    -9.1605   -25.7173 H            1 FAD3001   0.0000
    64 H6A2        50.1937    -9.1709   -26.0955 H            1 FAD3001   0.0000
    65 H2A         52.4564    -5.6291   -22.8906 H            1 FAD3001   0.0000
    66 H13         36.6227    -3.0776   -36.6900 H            1 FAD3001   0.0000
    67 H14         34.9437     1.9433   -32.0853 H            1 FAD3001   0.0000
    68 H7M1        35.2419     3.1059   -28.6788 H            1 FAD3001   0.0000
    69 H7M2        35.3549     3.7529   -30.1739 H            1 FAD3001   0.0000
    70 H7M3        34.0384     2.8802   -29.7592 H            1 FAD3001   0.0000
    71 H8M1        37.3686     0.4926   -27.4420 H            1 FAD3001   0.0000
    72 H8M2        37.2218     2.0895   -27.7504 H            1 FAD3001   0.0000
    73 H8M3        35.9072     1.2137   -27.3360 H            1 FAD3001   0.0000
    74 H21         37.6801    -0.8353   -29.2317 H            1 FAD3001   0.0000
    75 H1'1        38.4955    -3.5330   -31.4946 H            1 FAD3001   0.0000
    76 H1'2        37.8294    -2.9384   -30.1273 H            1 FAD3001   0.0000
    77 H2'         39.5514    -1.1566   -30.3517 H            1 FAD3001   0.0000
    78 H25         41.3429    -2.8285   -31.3682 H            1 FAD3001   0.0000
    79 H3'         39.7408    -3.7977   -29.3717 H            1 FAD3001   0.0000
    80 H27         39.3228    -2.8989   -27.4712 H            1 FAD3001   0.0000
    81 H4'         42.0068    -2.0555   -29.4143 H            1 FAD3001   0.0000
    82 H29         43.1277    -4.0448   -29.7056 H            1 FAD3001   0.0000
    83 H5'1        41.3092    -2.5708   -27.0810 H            1 FAD3001   0.0000
    84 H5'2        42.8651    -2.8774   -27.4704 H            1 FAD3001   0.0000
@<TRIPOS>BOND
     1    1    2      ar
     2    1    3      ar
     3    1    4       1
     4    1   53       1
     5    4    5       1
     6    5    6       1
     7    6    7       1
     8    6    8       1
     9    7   12       1
    10    8    9       1
    11    8   10       1
    12   10   11       1
    13   10   12       1
    14   12   13       1
    15   13   14       1
    16   13   22       1
    17   14   15       2
    18   15   16       1
    19   16   17      ar
    20   16   22      ar
    21   17   18       1
    22   17   19      ar
    23   19   20      ar
    24   20   21      ar
    25   21   22      ar
    26   23   24       1
    27   23   40       2
    28   24   25       2
    29   24   26       1
    30   26   27       1
    31   27   28       2
    32   27   29       1
    33   29   30       2
    34   29   40       1
    35   30   31       1
    36   31   32      ar
    37   31   38      ar
    38   32   33      ar
    39   33   34       1
    40   33   35      ar
    41   35   36       1
    42   35   37      ar
    43   37   38      ar
    44   38   39       1
    45   39   40       1
    46   39   41       1
    47   41   42       1
    48   42   43       1
    49   42   44       1
    50   44   45       1
    51   44   46       1
    52   46   47       1
    53   46   48       1
    54   48   49       1
    55   49   50       1
    56   50   51      ar
    57   50   52      ar
    58   50   53       1
    59   48   84       1
    60    5   54       1
    61    5   55       1
    62    6   56       1
    63    8   57       1
    64    9   58       1
    65   10   59       1
    66   11   60       1
    67   12   61       1
    68   14   62       1
    69   18   63       1
    70   18   64       1
    71   20   65       1
    72   26   66       1
    73   32   67       1
    74   34   68       1
    75   34   69       1
    76   34   70       1
    77   36   71       1
    78   36   72       1
    79   36   73       1
    80   37   74       1
    81   41   75       1
    82   41   76       1
    83   42   77       1
    84   43   78       1
    85   44   79       1
    86   45   80       1
    87   46   81       1
    88   47   82       1
    89   48   83       1
@<TRIPOS>SUBSTRUCTURE
     1 FAD3001     1 GROUP             4 D     FAD     0 **** FAD D3001
