@<TRIPOS>MOLECULE
4loo_SB4_1_ligand
   45    48     1     0     0
SMALL
NO_CHARGES


@<TRIPOS>ATOM
     1 CA1         23.0370   -20.8010    27.2090 C.3          1 SB4401   0.0000
     2 CA2         23.6910   -20.8480    25.8680 C.3          1 SB4401   0.0000
     3 NA3         22.8030   -20.1890    24.9040 N.4          1 SB4401   1.0000
     4 CA4         21.4880   -20.7580    24.7150 C.3          1 SB4401   0.0000
     5 CA5         20.8280   -20.6120    26.0840 C.3          1 SB4401   0.0000
     6 CA6         21.6040   -21.3770    27.1080 C.3          1 SB4401   0.0000
     7 CB1         20.8000   -22.7180    32.5220 C.ar         1 SB4401   0.0000
     8 CB2         20.4530   -23.1400    33.7810 C.ar         1 SB4401   0.0000
     9 CB3         19.1580   -22.8390    34.1860 C.ar         1 SB4401   0.0000
    10 CB4         18.3490   -22.0970    33.3870 C.ar         1 SB4401   0.0000
    11 CB5         18.7230   -21.6040    32.1600 C.ar         1 SB4401   0.0000
    12 CB6         20.0220   -21.8990    31.7140 C.ar         1 SB4401   0.0000
    13 FB7         18.7260   -23.3470    35.3320 F            1 SB4401   0.0000
    14 CC1         20.3980   -24.3440    29.6810 C.ar         1 SB4401   0.0000
    15 CC2         21.2720   -23.3910    29.2160 C.ar         1 SB4401   0.0000
    16 NC3         22.4510   -23.8180    28.5540 N.ar         1 SB4401   0.0000
    17 CC4         22.7050   -25.1130    28.3330 C.ar         1 SB4401   0.0000
    18 NC5         21.8810   -26.0280    28.8270 N.ar         1 SB4401   0.0000
    19 CC6         20.6580   -25.6770    29.4900 C.ar         1 SB4401   0.0000
    20 NC7         23.8150   -25.4990    27.6870 N.pl3        1 SB4401   0.0000
    21 ND1         21.0640   -21.1690    28.4290 N.pl3        1 SB4401   0.0000
    22 CD2         20.6100   -19.9850    28.8970 C.2          1 SB4401   0.0000
    23 ND3         20.1570   -20.1610    30.1480 N.2          1 SB4401   0.0000
    24 CD4         20.4200   -21.4280    30.5040 C.2          1 SB4401   0.0000
    25 CD5         20.9370   -22.0740    29.4060 C.2          1 SB4401   0.0000
    26 HA11        22.9933   -19.8532    27.5249 H            1 SB4401   0.0000
    27 HA12        23.5692   -21.3445    27.8581 H            1 SB4401   0.0000
    28 HA21        23.8397   -21.7989    25.5966 H            1 SB4401   0.0000
    29 HA22        24.5687   -20.3699    25.9021 H            1 SB4401   0.0000
    30 HA31        23.2641   -20.1978    24.0167 H            1 SB4401   0.0000
    31 HA41        21.5509   -21.7204    24.4506 H            1 SB4401   0.0000
    32 HA42        20.9783   -20.2535    24.0181 H            1 SB4401   0.0000
    33 HA51        19.8944   -20.9679    26.0416 H            1 SB4401   0.0000
    34 HA52        20.8050   -19.6455    26.3395 H            1 SB4401   0.0000
    35 HA6         21.6271   -22.3509    26.8824 H            1 SB4401   0.0000
    36 HB1         21.6802   -23.0235    32.1587 H            1 SB4401   0.0000
    37 HB2         21.0924   -23.6336    34.3705 H            1 SB4401   0.0000
    38 HB4         17.4244   -21.8970    33.7112 H            1 SB4401   0.0000
    39 HB5         18.0952   -21.0568    31.6064 H            1 SB4401   0.0000
    40 HC1         19.5671   -24.0638    30.1617 H            1 SB4401   0.0000
    41 HC6         20.0180   -26.3793    29.8017 H            1 SB4401   0.0000
    42 HC71        23.9897   -26.4710    27.5301 H            1 SB4401   0.0000
    43 HC72        24.4680   -24.8148    27.3622 H            1 SB4401   0.0000
    44 HD2         20.6114   -19.1206    28.3941 H            1 SB4401   0.0000
    45 HA32        22.6803   -19.2438    25.2066 H            1 SB4401   0.0000
@<TRIPOS>BOND
     1    1    2       1
     2    1    6       1
     3    2    3       1
     4    3    4       1
     5    4    5       1
     6    5    6       1
     7    6   21       1
     8    7    8      ar
     9    7   12      ar
    10    8    9      ar
    11    9   10      ar
    12    9   13       1
    13   10   11      ar
    14   11   12      ar
    15   12   24       1
    16   14   15      ar
    17   14   19      ar
    18   15   16      ar
    19   15   25       1
    20   16   17      ar
    21   17   18      ar
    22   17   20       1
    23   18   19      ar
    24   21   22       1
    25   21   25       1
    26   22   23       2
    27   23   24       1
    28   24   25       2
    29    1   26       1
    30    1   27       1
    31    2   28       1
    32    2   29       1
    33    3   30       1
    34    4   31       1
    35    4   32       1
    36    5   33       1
    37    5   34       1
    38    6   35       1
    39    7   36       1
    40    8   37       1
    41   10   38       1
    42   11   39       1
    43   14   40       1
    44   19   41       1
    45   20   42       1
    46   20   43       1
    47   22   44       1
    48    3   45       1
@<TRIPOS>SUBSTRUCTURE
     1 SB4401      1 GROUP             4 A     SB4     0 **** SB4 A 401
