@<TRIPOS>MOLECULE
3umo_ATP_1_ligand
   43    45     1     0     0
SMALL
NO_CHARGES


@<TRIPOS>ATOM
     1 PG           8.5350   -15.7940    16.2410 P.3          1 ATP313   0.0000
     2 O1G          9.3870   -15.6450    17.4520 O.co2        1 ATP313   0.0000
     3 O2G          7.1210   -15.4710    16.7160 O.co2        1 ATP313  -1.0000
     4 O3G          8.9430   -14.9080    15.1150 O.co2        1 ATP313  -1.0000
     5 PB           9.7960   -18.1030    15.4680 P.3          1 ATP313   0.0000
     6 O1B         10.5590   -17.4840    14.2570 O.co2        1 ATP313   0.0000
     7 O2B         10.6700   -18.3090    16.7230 O.co2        1 ATP313  -1.0000
     8 O3B          8.4680   -17.2890    15.8110 O.3          1 ATP313   0.0000
     9 PA           8.5400   -20.1130    13.8340 P.3          1 ATP313   0.0000
    10 O1A          8.4220   -19.0650    12.7670 O.co2        1 ATP313   0.0000
    11 O2A          9.2260   -21.3940    13.3550 O.co2        1 ATP313  -1.0000
    12 O3A          9.2820   -19.5560    15.0790 O.3          1 ATP313   0.0000
    13 O5'          7.0550   -20.4120    14.3760 O.3          1 ATP313   0.0000
    14 C5'          6.8500   -21.4700    15.2490 C.3          1 ATP313   0.0000
    15 C4'          5.8050   -22.4310    14.9010 C.3          1 ATP313   0.0000
    16 O4'          4.6290   -21.6910    14.5070 O.3          1 ATP313   0.0000
    17 C3'          6.1360   -23.2160    13.7010 C.3          1 ATP313   0.0000
    18 O3'          6.9130   -24.3120    14.0060 O.3          1 ATP313   0.0000
    19 C2'          4.8090   -23.5720    13.1700 C.3          1 ATP313   0.0000
    20 O2'          4.2390   -24.5510    13.9390 O.3          1 ATP313   0.0000
    21 C1'          4.0510   -22.3190    13.3860 C.3          1 ATP313   0.0000
    22 N9           4.1210   -21.4380    12.2220 N.pl3        1 ATP313   0.0000
    23 C8           4.9450   -20.3850    12.0690 C.2          1 ATP313   0.0000
    24 N7           4.6950   -19.8410    10.8520 N.2          1 ATP313   0.0000
    25 C5           3.7200   -20.5480    10.2440 C.ar         1 ATP313   0.0000
    26 C6           3.0700   -20.4410     9.0100 C.ar         1 ATP313   0.0000
    27 N6           3.4270   -19.3580     8.0340 N.pl3        1 ATP313   0.0000
    28 N1           2.1150   -21.3380     8.7090 N.ar         1 ATP313   0.0000
    29 C2           1.7810   -22.3180     9.5660 C.ar         1 ATP313   0.0000
    30 N3           2.3840   -22.4390    10.7520 N.ar         1 ATP313   0.0000
    31 C4           3.3470   -21.5740    11.1160 C.ar         1 ATP313   0.0000
    32 H5'1         6.6176   -21.0829    16.1413 H            1 ATP313   0.0000
    33 H5'2         7.7110   -21.9739    15.3183 H            1 ATP313   0.0000
    34 H4'          5.6037   -23.0323    15.6743 H            1 ATP313   0.0000
    35 H3'          6.6166   -22.6365    13.0428 H            1 ATP313   0.0000
    36 H5           7.1171   -24.8193    13.1687 H            1 ATP313   0.0000
    37 H2'          4.8466   -23.8269    12.2038 H            1 ATP313   0.0000
    38 H7           3.3396   -24.7840    13.5692 H            1 ATP313   0.0000
    39 H1'          3.0950   -22.5372    13.5821 H            1 ATP313   0.0000
    40 H9           5.6197   -20.0620    12.7327 H            1 ATP313   0.0000
    41 H10          2.9505   -19.2985     7.1568 H            1 ATP313   0.0000
    42 H11          4.1413   -18.6960     8.2609 H            1 ATP313   0.0000
    43 H12          1.0668   -22.9697     9.3108 H            1 ATP313   0.0000
@<TRIPOS>BOND
     1    1    2      ar
     2    1    3      ar
     3    1    4      ar
     4    1    8       1
     5    5    6      ar
     6    5    7      ar
     7    5    8       1
     8    5   12       1
     9    9   10      ar
    10    9   11      ar
    11    9   12       1
    12    9   13       1
    13   13   14       1
    14   14   15       1
    15   15   16       1
    16   15   17       1
    17   16   21       1
    18   17   18       1
    19   17   19       1
    20   19   20       1
    21   19   21       1
    22   21   22       1
    23   22   23       1
    24   22   31       1
    25   23   24       2
    26   24   25       1
    27   25   26      ar
    28   25   31      ar
    29   26   27       1
    30   26   28      ar
    31   28   29      ar
    32   29   30      ar
    33   30   31      ar
    34   29   43       1
    35   27   42       1
    36   27   41       1
    37   23   40       1
    38   14   32       1
    39   14   33       1
    40   15   34       1
    41   17   35       1
    42   18   36       1
    43   19   37       1
    44   20   38       1
    45   21   39       1
@<TRIPOS>SUBSTRUCTURE
     1 ATP313      1 GROUP             4 A     ATP     0 **** ATP A 313
