@<TRIPOS>MOLECULE
4eym_0RX_1_ligand
   48    51     1     0     0
SMALL
NO_CHARGES


@<TRIPOS>ATOM
     1 O1         -13.3930    12.3820   -26.5740 O.2          1 0RX401   0.0000
     2 C1         -14.2360    11.5210   -26.4060 C.2          1 0RX401   0.0000
     3 C13        -14.9400    11.4950   -25.0830 C.ar         1 0RX401   0.0000
     4 C21        -15.2410    10.2920   -24.4700 C.ar         1 0RX401   0.0000
     5 C16        -15.8890    10.3030   -23.2410 C.ar         1 0RX401   0.0000
     6 N4         -16.1680     9.0870   -22.6130 N.pl3        1 0RX401   0.0000
     7 C20        -16.4390     9.0650   -21.1810 C.3          1 0RX401   0.0000
     8 C19        -17.4310     7.9360   -20.9340 C.3          1 0RX401   0.0000
     9 O3         -16.9610     6.6850   -21.4430 O.3          1 0RX401   0.0000
    10 C18        -15.8660     6.7730   -22.3540 C.3          1 0RX401   0.0000
    11 C17        -16.1500     7.8560   -23.3860 C.3          1 0RX401   0.0000
    12 N3         -16.2240    11.4670   -22.6440 N.ar         1 0RX401   0.0000
    13 C15        -15.9480    12.6380   -23.2250 C.ar         1 0RX401   0.0000
    14 C14        -15.2990    12.6790   -24.4560 C.ar         1 0RX401   0.0000
    15 N1         -14.5590    10.6180   -27.3330 N.am         1 0RX401   0.0000
    16 C2         -13.8530    10.4180   -28.4740 C.ar         1 0RX401   0.0000
    17 C12        -14.4200     9.6530   -29.4810 C.ar         1 0RX401   0.0000
    18 C11        -13.7300     9.4190   -30.6650 C.ar         1 0RX401   0.0000
    19 C5         -12.4650     9.9570   -30.8570 C.ar         1 0RX401   0.0000
    20 C4         -11.8830    10.7140   -29.8490 C.ar         1 0RX401   0.0000
    21 C3         -12.5780    10.9450   -28.6620 C.ar         1 0RX401   0.0000
    22 O2         -11.8040     9.7060   -32.0340 O.3          1 0RX401   0.0000
    23 C6         -11.3200    10.7100   -32.8340 C.ar         1 0RX401   0.0000
    24 C10        -11.8910    11.9800   -32.8140 C.ar         1 0RX401   0.0000
    25 C9         -11.3790    12.9720   -33.6450 C.ar         1 0RX401   0.0000
    26 N2         -10.3580    12.7070   -34.4720 N.ar         1 0RX401   0.0000
    27 C8          -9.8020    11.4900   -34.5180 C.ar         1 0RX401   0.0000
    28 C7         -10.2650    10.4620   -33.7020 C.ar         1 0RX401   0.0000
    29 H1         -14.9955     9.4260   -24.9056 H            1 0RX401   0.0000
    30 H2         -16.8328     9.9377   -20.8924 H            1 0RX401   0.0000
    31 H3         -15.5937     8.8968   -20.6739 H            1 0RX401   0.0000
    32 H4         -18.2953     8.1624   -21.3830 H            1 0RX401   0.0000
    33 H5         -17.5801     7.8477   -19.9491 H            1 0RX401   0.0000
    34 H6         -15.7461     5.8947   -22.8169 H            1 0RX401   0.0000
    35 H7         -15.0321     7.0017   -21.8517 H            1 0RX401   0.0000
    36 H8         -15.4301     7.8829   -24.0795 H            1 0RX401   0.0000
    37 H9         -17.0335     7.7018   -23.8284 H            1 0RX401   0.0000
    38 H10        -16.2093    13.4907   -22.7727 H            1 0RX401   0.0000
    39 H11        -15.0926    13.5579   -24.8861 H            1 0RX401   0.0000
    40 H12        -15.3704    10.0545   -27.1776 H            1 0RX401   0.0000
    41 H13        -15.3334     9.2660   -29.3548 H            1 0RX401   0.0000
    42 H14        -14.1471     8.8603   -31.3819 H            1 0RX401   0.0000
    43 H15        -10.9662    11.0933   -29.9740 H            1 0RX401   0.0000
    44 H16        -12.1570    11.4938   -27.9398 H            1 0RX401   0.0000
    45 H17        -12.6617    12.1773   -32.2082 H            1 0RX401   0.0000
    46 H18        -11.7759    13.8896   -33.6250 H            1 0RX401   0.0000
    47 H19         -9.0440    11.3173   -35.1470 H            1 0RX401   0.0000
    48 H20         -9.8432     9.5561   -33.7403 H            1 0RX401   0.0000
@<TRIPOS>BOND
     1    1    2       2
     2    2    3       1
     3    2   15      am
     4    3    4      ar
     5    3   14      ar
     6    4    5      ar
     7    5    6       1
     8    5   12      ar
     9    6    7       1
    10    6   11       1
    11    7    8       1
    12    8    9       1
    13    9   10       1
    14   10   11       1
    15   12   13      ar
    16   13   14      ar
    17   15   16       1
    18   16   17      ar
    19   16   21      ar
    20   17   18      ar
    21   18   19      ar
    22   19   20      ar
    23   19   22       1
    24   20   21      ar
    25   22   23       1
    26   23   24      ar
    27   23   28      ar
    28   24   25      ar
    29   25   26      ar
    30   26   27      ar
    31   27   28      ar
    32    4   29       1
    33    7   30       1
    34    7   31       1
    35    8   32       1
    36    8   33       1
    37   10   34       1
    38   10   35       1
    39   11   36       1
    40   11   37       1
    41   13   38       1
    42   14   39       1
    43   15   40       1
    44   17   41       1
    45   18   42       1
    46   20   43       1
    47   21   44       1
    48   24   45       1
    49   25   46       1
    50   27   47       1
    51   28   48       1
@<TRIPOS>SUBSTRUCTURE
     1 0RX401      1 GROUP             4 A     0RX     0 **** 0RX A 401
