@<TRIPOS>MOLECULE
2zsi_GA4_1_ligand
   47    51     1     0     0
SMALL
NO_CHARGES


@<TRIPOS>ATOM
     1 C1          -8.9780    17.7000    -7.5100 C.3          1 GA4345   0.0000
     2 C2          -9.8840    16.8400    -8.3300 C.3          1 GA4345   0.0000
     3 C3         -11.2740    16.7760    -7.9660 C.3          1 GA4345   0.0000
     4 O31        -12.0050    17.8480    -8.6160 O.3          1 GA4345   0.0000
     5 C4         -11.5760    16.8130    -6.3660 C.3          1 GA4345   0.0000
     6 C5         -10.8730    18.0130    -5.7750 C.3          1 GA4345   0.0000
     7 C6         -10.9640    18.5050    -4.2590 C.3          1 GA4345   0.0000
     8 C7         -12.1600    19.4160    -4.0570 C.2          1 GA4345   0.0000
     9 O71        -12.4870    20.3200    -4.7660 O.co2        1 GA4345   0.0000
    10 O72        -12.7930    19.0630    -2.9600 O.co2        1 GA4345  -1.0000
    11 C8          -9.5100    19.0010    -3.8960 C.3          1 GA4345   0.0000
    12 C9          -8.6300    18.5230    -5.1500 C.3          1 GA4345   0.0000
    13 C10         -9.3810    17.7740    -6.1320 C.3          1 GA4345   0.0000
    14 C11         -7.3750    17.8140    -4.4800 C.3          1 GA4345   0.0000
    15 C12         -6.6830    18.6760    -3.4170 C.3          1 GA4345   0.0000
    16 C13         -7.7380    19.4470    -2.5400 C.3          1 GA4345   0.0000
    17 C14         -9.0450    18.7060    -2.5520 C.3          1 GA4345   0.0000
    18 C15         -9.3290    20.5900    -3.8700 C.3          1 GA4345   0.0000
    19 C16         -8.2000    20.6800    -3.0050 C.2          1 GA4345   0.0000
    20 C17         -7.6940    21.7620    -2.7460 C.2          1 GA4345   0.0000
    21 C18        -13.0510    16.7650    -6.1590 C.3          1 GA4345   0.0000
    22 C19        -10.7560    15.6910    -5.7530 C.2          1 GA4345   0.0000
    23 O91        -11.0680    14.6540    -5.4670 O.2          1 GA4345   0.0000
    24 O92         -9.4080    16.2570    -5.5710 O.3          1 GA4345   0.0000
    25 H1          -8.9794    18.6234    -7.8938 H            1 GA4345   0.0000
    26 H2          -8.0530    17.3225    -7.5530 H            1 GA4345   0.0000
    27 H3          -9.5240    15.9079    -8.2904 H            1 GA4345   0.0000
    28 H4          -9.8391    17.1750    -9.2711 H            1 GA4345   0.0000
    29 H5         -11.6351    15.9124    -8.3179 H            1 GA4345   0.0000
    30 H6         -12.9469    17.5562    -8.7822 H            1 GA4345   0.0000
    31 H7         -11.1609    18.7939    -6.3294 H            1 GA4345   0.0000
    32 H8         -11.1320    17.6892    -3.7055 H            1 GA4345   0.0000
    33 H9          -8.2935    19.3479    -5.6042 H            1 GA4345   0.0000
    34 H10         -6.7111    17.6014    -5.1969 H            1 GA4345   0.0000
    35 H11         -7.6830    16.9659    -4.0489 H            1 GA4345   0.0000
    36 H12         -6.0880    19.3393    -3.8708 H            1 GA4345   0.0000
    37 H13         -6.1341    18.0863    -2.8246 H            1 GA4345   0.0000
    38 H14         -7.4037    19.5376    -1.6019 H            1 GA4345   0.0000
    39 H15         -8.9131    17.7242    -2.4150 H            1 GA4345   0.0000
    40 H16         -9.6743    19.0577    -1.8590 H            1 GA4345   0.0000
    41 H17        -10.1300    21.0511    -3.4882 H            1 GA4345   0.0000
    42 H18         -9.1338    20.9588    -4.7788 H            1 GA4345   0.0000
    43 H19         -8.0884    22.6010    -3.1210 H            1 GA4345   0.0000
    44 H20         -6.8856    21.8083    -2.1591 H            1 GA4345   0.0000
    45 H21        -13.2510    16.7871    -5.1795 H            1 GA4345   0.0000
    46 H22        -13.4759    17.5534    -6.6038 H            1 GA4345   0.0000
    47 H23        -13.4159    15.9223    -6.5548 H            1 GA4345   0.0000
@<TRIPOS>BOND
     1    1    2       1
     2    1   13       1
     3    2    3       1
     4    3    4       1
     5    3    5       1
     6    5    6       1
     7    5   21       1
     8    5   22       1
     9    6    7       1
    10    6   13       1
    11    7    8       1
    12    7   11       1
    13    8    9      ar
    14    8   10      ar
    15   11   12       1
    16   11   17       1
    17   11   18       1
    18   12   13       1
    19   12   14       1
    20   13   24       1
    21   14   15       1
    22   15   16       1
    23   16   17       1
    24   16   19       1
    25   18   19       1
    26   19   20       2
    27   22   23       2
    28   22   24       1
    29    1   25       1
    30    1   26       1
    31    2   27       1
    32    2   28       1
    33    3   29       1
    34    4   30       1
    35    6   31       1
    36    7   32       1
    37   21   47       1
    38   12   33       1
    39   14   34       1
    40   14   35       1
    41   15   36       1
    42   15   37       1
    43   16   38       1
    44   17   39       1
    45   17   40       1
    46   18   41       1
    47   18   42       1
    48   20   43       1
    49   20   44       1
    50   21   45       1
    51   21   46       1
@<TRIPOS>SUBSTRUCTURE
     1 GA4345      1 GROUP             4 A     GA4     0 **** GA4 A 345
