@<TRIPOS>MOLECULE
4b4d_FAD_1_ligand
   84    89     1     0     0
SMALL
NO_CHARGES


@<TRIPOS>ATOM
     1 PA          22.0040    38.3500    25.8550 P.3          1 FAD1260   0.0000
     2 O1A         22.1630    39.6160    26.6910 O.co2        1 FAD1260   0.0000
     3 O2A         22.9080    37.2080    25.8640 O.co2        1 FAD1260  -1.0000
     4 O5B         20.7310    37.6040    26.5200 O.3          1 FAD1260   0.0000
     5 C5B         19.6320    38.3240    27.1340 C.3          1 FAD1260   0.0000
     6 C4B         18.4200    37.4270    27.4250 C.3          1 FAD1260   0.0000
     7 O4B         17.9720    36.8620    26.1930 O.3          1 FAD1260   0.0000
     8 C3B         18.7730    36.2200    28.2770 C.3          1 FAD1260   0.0000
     9 O3B         18.8120    36.5640    29.6600 O.3          1 FAD1260   0.0000
    10 C2B         17.6140    35.2770    27.9790 C.3          1 FAD1260   0.0000
    11 O2B         16.3980    35.7290    28.6510 O.3          1 FAD1260   0.0000
    12 C1B         17.4270    35.5400    26.4950 C.3          1 FAD1260   0.0000
    13 N9A         18.1110    34.6050    25.5700 N.pl3        1 FAD1260   0.0000
    14 C8A         19.3720    34.6650    25.1120 C.2          1 FAD1260   0.0000
    15 N7A         19.5560    33.6480    24.2650 N.2          1 FAD1260   0.0000
    16 C5A         18.4020    32.9690    24.1560 C.ar         1 FAD1260   0.0000
    17 C6A         18.0420    31.8760    23.4470 C.ar         1 FAD1260   0.0000
    18 N6A         18.9310    31.2810    22.6340 N.pl3        1 FAD1260   0.0000
    19 N1A         16.7910    31.3890    23.5130 N.ar         1 FAD1260   0.0000
    20 C2A         15.8770    32.0090    24.3490 C.ar         1 FAD1260   0.0000
    21 N3A         16.2460    33.1290    25.0810 N.ar         1 FAD1260   0.0000
    22 C4A         17.5170    33.5760    24.9690 C.ar         1 FAD1260   0.0000
    23 N1          21.6770    31.5010    21.1990 N.2          1 FAD1260   0.0000
    24 C2          21.0950    31.2790    19.9540 C.2          1 FAD1260   0.0000
    25 O2          20.2640    32.0710    19.5220 O.2          1 FAD1260   0.0000
    26 N3          21.4180    30.1280    19.2360 N.pl3        1 FAD1260   0.0000
    27 C4          22.3450    29.2030    19.7130 C.2          1 FAD1260   0.0000
    28 O4          22.5930    28.2160    19.0070 O.2          1 FAD1260   0.0000
    29 C4X         22.9310    29.4230    20.9690 C.2          1 FAD1260   0.0000
    30 N5          23.8470    28.5240    21.4910 N.2          1 FAD1260   0.0000
    31 C5X         24.3790    28.7810    22.7500 C.ar         1 FAD1260   0.0000
    32 C6          25.2950    27.8590    23.2560 C.ar         1 FAD1260   0.0000
    33 C7          25.8770    28.0560    24.4980 C.ar         1 FAD1260   0.0000
    34 C7M         26.8010    27.0800    24.9700 C.3          1 FAD1260   0.0000
    35 C8          25.5700    29.2100    25.2290 C.ar         1 FAD1260   0.0000
    36 C8M         26.1620    29.4380    26.5080 C.3          1 FAD1260   0.0000
    37 C9          24.6510    30.1460    24.7240 C.ar         1 FAD1260   0.0000
    38 C9A         24.0430    29.9380    23.4710 C.ar         1 FAD1260   0.0000
    39 N10         23.1520    30.8160    22.9320 N.pl3        1 FAD1260   0.0000
    40 C10         22.6010    30.5770    21.7100 C.2          1 FAD1260   0.0000
    41 C1'         22.8020    32.0780    23.6480 C.3          1 FAD1260   0.0000
    42 C2'         23.7030    33.1820    23.0220 C.3          1 FAD1260   0.0000
    43 O2'         25.0830    33.0430    23.4850 O.3          1 FAD1260   0.0000
    44 C3'         23.2550    34.6320    23.2820 C.3          1 FAD1260   0.0000
    45 O3'         22.8280    34.7750    24.6320 O.3          1 FAD1260   0.0000
    46 C4'         22.1590    35.0330    22.2780 C.3          1 FAD1260   0.0000
    47 O4'         22.7950    35.2250    21.0070 O.3          1 FAD1260   0.0000
    48 C5'         21.4650    36.3400    22.6810 C.3          1 FAD1260   0.0000
    49 O5'         22.4650    37.3720    22.7590 O.3          1 FAD1260   0.0000
    50 P           22.0330    38.8750    23.0800 P.3          1 FAD1260   0.0000
    51 O1P         23.3260    39.6040    23.2830 O.co2        1 FAD1260   0.0000
    52 O2P         21.0910    39.3530    22.0640 O.co2        1 FAD1260  -1.0000
    53 O3P         21.2250    38.6740    24.5210 O.3          1 FAD1260   0.0000
    54 H5B1        19.3459    39.0569    26.5167 H            1 FAD1260   0.0000
    55 H5B2        19.9509    38.7192    27.9955 H            1 FAD1260   0.0000
    56 H4B         17.6879    37.9562    27.8540 H            1 FAD1260   0.0000
    57 H3B         19.6417    35.8199    27.9850 H            1 FAD1260   0.0000
    58 H5          19.5013    37.2732    29.8078 H            1 FAD1260   0.0000
    59 H2B         17.8326    34.3216    28.1774 H            1 FAD1260   0.0000
    60 H7          16.3463    35.3158    29.5602 H            1 FAD1260   0.0000
    61 H1B         16.4486    35.5398    26.2884 H            1 FAD1260   0.0000
    62 H8A         20.0548    35.3516    25.3615 H            1 FAD1260   0.0000
    63 H6A1        18.6654    30.4723    22.1091 H            1 FAD1260   0.0000
    64 H6A2        19.8582    31.6469    22.5538 H            1 FAD1260   0.0000
    65 H2A         14.9475    31.6482    24.4254 H            1 FAD1260   0.0000
    66 H13         20.9729    29.9620    18.3560 H            1 FAD1260   0.0000
    67 H14         25.5335    27.0500    22.7187 H            1 FAD1260   0.0000
    68 H7M1        27.1390    27.3495    25.8717 H            1 FAD1260   0.0000
    69 H7M2        26.3439    26.1931    25.0367 H            1 FAD1260   0.0000
    70 H7M3        27.5688    27.0122    24.3329 H            1 FAD1260   0.0000
    71 H8M1        25.8293    30.3048    26.8796 H            1 FAD1260   0.0000
    72 H8M2        25.9146    28.6929    27.1274 H            1 FAD1260   0.0000
    73 H8M3        27.1567    29.4760    26.4129 H            1 FAD1260   0.0000
    74 H21         24.4281    30.9626    25.2565 H            1 FAD1260   0.0000
    75 H1'1        22.9902    31.9876    24.6260 H            1 FAD1260   0.0000
    76 H1'2        21.8360    32.2987    23.5134 H            1 FAD1260   0.0000
    77 H2'         23.7039    33.0419    22.0319 H            1 FAD1260   0.0000
    78 H25         25.5853    32.4444    22.8610 H            1 FAD1260   0.0000
    79 H3'         24.0425    35.2316    23.1393 H            1 FAD1260   0.0000
    80 H27         23.0040    35.7100    24.9400 H            1 FAD1260   0.0000
    81 H4'         21.4821    34.3002    22.2083 H            1 FAD1260   0.0000
    82 H29         22.1505    35.0041    20.2750 H            1 FAD1260   0.0000
    83 H5'1        21.0229    36.2285    23.5710 H            1 FAD1260   0.0000
    84 H5'2        20.7785    36.5844    21.9961 H            1 FAD1260   0.0000
@<TRIPOS>BOND
     1    1    2      ar
     2    1    3      ar
     3    1    4       1
     4    1   53       1
     5    4    5       1
     6    5    6       1
     7    6    7       1
     8    6    8       1
     9    7   12       1
    10    8    9       1
    11    8   10       1
    12   10   11       1
    13   10   12       1
    14   12   13       1
    15   13   14       1
    16   13   22       1
    17   14   15       2
    18   15   16       1
    19   16   17      ar
    20   16   22      ar
    21   17   18       1
    22   17   19      ar
    23   19   20      ar
    24   20   21      ar
    25   21   22      ar
    26   23   24       1
    27   23   40       2
    28   24   25       2
    29   24   26       1
    30   26   27       1
    31   27   28       2
    32   27   29       1
    33   29   30       2
    34   29   40       1
    35   30   31       1
    36   31   32      ar
    37   31   38      ar
    38   32   33      ar
    39   33   34       1
    40   33   35      ar
    41   35   36       1
    42   35   37      ar
    43   37   38      ar
    44   38   39       1
    45   39   40       1
    46   39   41       1
    47   41   42       1
    48   42   43       1
    49   42   44       1
    50   44   45       1
    51   44   46       1
    52   46   47       1
    53   46   48       1
    54   48   49       1
    55   49   50       1
    56   50   51      ar
    57   50   52      ar
    58   50   53       1
    59   48   84       1
    60    5   54       1
    61    5   55       1
    62    6   56       1
    63    8   57       1
    64    9   58       1
    65   10   59       1
    66   11   60       1
    67   12   61       1
    68   14   62       1
    69   18   63       1
    70   18   64       1
    71   20   65       1
    72   26   66       1
    73   32   67       1
    74   34   68       1
    75   34   69       1
    76   34   70       1
    77   36   71       1
    78   36   72       1
    79   36   73       1
    80   37   74       1
    81   41   75       1
    82   41   76       1
    83   42   77       1
    84   43   78       1
    85   44   79       1
    86   45   80       1
    87   46   81       1
    88   47   82       1
    89   48   83       1
@<TRIPOS>SUBSTRUCTURE
     1 FAD1260     1 GROUP             4 A     FAD     0 **** FAD A1260
