@<TRIPOS>MOLECULE
2prz_OMP_2_ligand
   34    35     1     0     0
SMALL
NO_CHARGES


@<TRIPOS>ATOM
     1 P           82.1490    52.9490    51.7070 P.3          1 OMP550   0.0000
     2 O1P         81.3610    53.0790    50.4400 O.co2        1 OMP550   0.0000
     3 O2P         82.4910    54.2230    52.4520 O.co2        1 OMP550  -1.0000
     4 O3P         81.3780    52.0480    52.6010 O.co2        1 OMP550  -1.0000
     5 O5'         83.5630    52.2630    51.3410 O.3          1 OMP550   0.0000
     6 C5'         83.6720    50.8850    50.9880 C.3          1 OMP550   0.0000
     7 C4'         84.3810    50.7550    49.6430 C.3          1 OMP550   0.0000
     8 O4'         85.7360    51.2240    49.6820 O.3          1 OMP550   0.0000
     9 C3'         84.4790    49.3230    49.1790 C.3          1 OMP550   0.0000
    10 O3'         83.3420    48.9790    48.3860 O.3          1 OMP550   0.0000
    11 C2'         85.7790    49.3340    48.3920 C.3          1 OMP550   0.0000
    12 O2'         85.5020    49.8780    47.0990 O.3          1 OMP550   0.0000
    13 C1'         86.6960    50.3040    49.1340 C.3          1 OMP550   0.0000
    14 N1          87.4360    49.7110    50.2830 N.pl3        1 OMP550   0.0000
    15 C2          87.8560    48.3520    50.3110 C.2          1 OMP550   0.0000
    16 O2          87.6590    47.5840    49.3390 O.2          1 OMP550   0.0000
    17 N3          88.4920    47.8530    51.3840 N.pl3        1 OMP550   0.0000
    18 C4          88.7730    48.5890    52.4690 C.2          1 OMP550   0.0000
    19 O4          89.3640    48.0550    53.4360 O.2          1 OMP550   0.0000
    20 C5          88.3920    49.9260    52.5240 C.2          1 OMP550   0.0000
    21 C6          87.7180    50.4980    51.4430 C.2          1 OMP550   0.0000
    22 C7          87.3750    51.9600    51.4980 C.2          1 OMP550   0.0000
    23 O71         87.8630    52.6600    50.5730 O.co2        1 OMP550   0.0000
    24 O72         86.7060    52.4730    52.4170 O.co2        1 OMP550  -1.0000
    25 H5'1        82.7578    50.4851    50.9222 H            1 OMP550   0.0000
    26 H5'2        84.1972    50.4025    51.6890 H            1 OMP550   0.0000
    27 H4'         83.8762    51.2822    48.9595 H            1 OMP550   0.0000
    28 H3'         84.5536    48.7080    49.9640 H            1 OMP550   0.0000
    29 H5          83.1465    48.0037    48.4890 H            1 OMP550   0.0000
    30 H2'         86.1808    48.4204    48.3299 H            1 OMP550   0.0000
    31 H7          84.5589    49.6656    46.8431 H            1 OMP550   0.0000
    32 H1'         87.3192    50.7659    48.5029 H            1 OMP550   0.0000
    33 H9          88.7676    46.8918    51.3730 H            1 OMP550   0.0000
    34 H10         88.5998    50.4747    53.3338 H            1 OMP550   0.0000
@<TRIPOS>BOND
     1    1    2      ar
     2    1    3      ar
     3    1    4      ar
     4    1    5       1
     5    5    6       1
     6    6    7       1
     7    7    8       1
     8    7    9       1
     9    8   13       1
    10    9   10       1
    11    9   11       1
    12   11   12       1
    13   11   13       1
    14   13   14       1
    15   14   15       1
    16   14   21       1
    17   15   16       2
    18   15   17       1
    19   17   18       1
    20   18   19       2
    21   18   20       1
    22   20   21       2
    23   21   22       1
    24   22   23      ar
    25   22   24      ar
    26   17   33       1
    27   20   34       1
    28    6   25       1
    29    6   26       1
    30    7   27       1
    31    9   28       1
    32   10   29       1
    33   11   30       1
    34   12   31       1
    35   13   32       1
@<TRIPOS>SUBSTRUCTURE
     1 OMP550      1 GROUP             4 B     OMP     0 **** OMP B 550
