@<TRIPOS>MOLECULE
2vhz_NAI_2_ligand
   71    75     1     0     0
SMALL
NO_CHARGES


@<TRIPOS>ATOM
     1 PA          38.7140    17.6280    33.3990 P.3          1 NAI1372   0.0000
     2 O1A         39.3410    18.4200    34.4870 O.co2        1 NAI1372   0.0000
     3 O2A         38.1050    18.2960    32.1810 O.co2        1 NAI1372  -1.0000
     4 O5B         37.5630    16.6760    34.0040 O.3          1 NAI1372   0.0000
     5 C5B         37.7480    15.8900    35.1790 C.3          1 NAI1372   0.0000
     6 C4B         36.4170    15.7580    35.9240 C.3          1 NAI1372   0.0000
     7 O4B         36.6060    14.8000    36.9660 O.3          1 NAI1372   0.0000
     8 C3B         36.0060    17.0740    36.6130 C.3          1 NAI1372   0.0000
     9 O3B         34.7320    17.4540    36.1420 O.3          1 NAI1372   0.0000
    10 C2B         35.9750    16.7490    38.1050 C.3          1 NAI1372   0.0000
    11 O2B         34.9540    17.4270    38.8840 O.3          1 NAI1372   0.0000
    12 C1B         35.8080    15.2440    38.0610 C.3          1 NAI1372   0.0000
    13 N9A         36.2230    14.6200    39.3310 N.pl3        1 NAI1372   0.0000
    14 C8A         37.3680    14.8540    40.0230 C.2          1 NAI1372   0.0000
    15 N7A         37.3850    14.0950    41.1390 N.2          1 NAI1372   0.0000
    16 C5A         36.2450    13.3600    41.1440 C.ar         1 NAI1372   0.0000
    17 C6A         35.6290    12.3610    42.0370 C.ar         1 NAI1372   0.0000
    18 N6A         36.2830    12.0040    43.1740 N.pl3        1 NAI1372   0.0000
    19 N1A         34.4310    11.8370    41.6870 N.ar         1 NAI1372   0.0000
    20 C2A         33.7720    12.2000    40.5570 C.ar         1 NAI1372   0.0000
    21 N3A         34.2770    13.1100    39.6870 N.ar         1 NAI1372   0.0000
    22 C4A         35.4840    13.6970    39.9370 C.ar         1 NAI1372   0.0000
    23 O3          39.7870    16.5010    32.9560 O.3          1 NAI1372   0.0000
    24 PN          39.8630    15.7790    31.5470 P.3          1 NAI1372   0.0000
    25 O1N         40.5770    16.6890    30.5910 O.co2        1 NAI1372   0.0000
    26 O2N         38.5440    15.1740    31.1350 O.co2        1 NAI1372  -1.0000
    27 O5D         40.8400    14.5390    31.8200 O.3          1 NAI1372   0.0000
    28 C5D         40.4250    13.3710    32.5360 C.3          1 NAI1372   0.0000
    29 C4D         41.5970    12.3980    32.5800 C.3          1 NAI1372   0.0000
    30 O4D         41.8740    11.9190    31.2610 O.3          1 NAI1372   0.0000
    31 C3D         42.9120    13.0490    33.0420 C.3          1 NAI1372   0.0000
    32 O3D         43.6700    12.1490    33.8820 O.3          1 NAI1372   0.0000
    33 C2D         43.6890    13.2280    31.7510 C.3          1 NAI1372   0.0000
    34 O2D         45.0880    13.4090    31.9970 O.3          1 NAI1372   0.0000
    35 C1D         43.2930    11.9250    31.0840 C.3          1 NAI1372   0.0000
    36 N1N         43.7170    11.7360    29.6860 N.pl3        1 NAI1372   0.0000
    37 C2N         44.1780    10.5190    29.3580 C.2          1 NAI1372   0.0000
    38 C3N         44.6260    10.2280    28.0700 C.2          1 NAI1372   0.0000
    39 C7N         45.1200     8.8390    27.7380 C.2          1 NAI1372   0.0000
    40 O7N         45.7140     8.6660    26.6850 O.2          1 NAI1372   0.0000
    41 N7N         44.8560     7.8060    28.5780 N.am         1 NAI1372   0.0000
    42 C4N         44.6030    11.2450    27.1040 C.3          1 NAI1372   0.0000
    43 C5N         44.1110    12.5020    27.4620 C.2          1 NAI1372   0.0000
    44 C6N         43.6600    12.7340    28.7690 C.2          1 NAI1372   0.0000
    45 H5B1        38.4194    16.3328    35.7732 H            1 NAI1372   0.0000
    46 H5B2        38.0775    14.9812    34.9229 H            1 NAI1372   0.0000
    47 H4B         35.6980    15.4540    35.2991 H            1 NAI1372   0.0000
    48 H3B         36.6767    17.7915    36.4251 H            1 NAI1372   0.0000
    49 H5          34.0271    17.0531    36.7271 H            1 NAI1372   0.0000
    50 H2B         36.8702    16.9605    38.4974 H            1 NAI1372   0.0000
    51 H7          34.1213    16.8734    38.8959 H            1 NAI1372   0.0000
    52 H1B         34.8493    15.0231    37.8821 H            1 NAI1372   0.0000
    53 H8A         38.0881    15.4910    39.7479 H            1 NAI1372   0.0000
    54 H6A1        35.8802    11.3281    43.7912 H            1 NAI1372   0.0000
    55 H6A2        37.1669    12.4172    43.3932 H            1 NAI1372   0.0000
    56 H2A         32.8849    11.7827    40.3595 H            1 NAI1372   0.0000
    57 H5D1        39.6493    12.9458    32.0696 H            1 NAI1372   0.0000
    58 H5D2        40.1579    13.6215    33.4665 H            1 NAI1372   0.0000
    59 H4D         41.3737    11.6283    33.1781 H            1 NAI1372   0.0000
    60 H3D         42.7483    13.9247    33.4963 H            1 NAI1372   0.0000
    61 H17         44.2820    11.5988    33.3139 H            1 NAI1372   0.0000
    62 H2D         43.3263    14.0039    31.2348 H            1 NAI1372   0.0000
    63 H19         45.6028    12.6798    31.5462 H            1 NAI1372   0.0000
    64 H1D         43.6734    11.1748    31.6248 H            1 NAI1372   0.0000
    65 H2N         44.2008     9.8025    30.0552 H            1 NAI1372   0.0000
    66 H7N1        45.1829     6.8868    28.3583 H            1 NAI1372   0.0000
    67 H7N2        44.3346     7.9641    29.4165 H            1 NAI1372   0.0000
    68 H4N1        44.0428    10.9157    26.3439 H            1 NAI1372   0.0000
    69 H4N2        45.5442    11.3756    26.7923 H            1 NAI1372   0.0000
    70 H5N         44.0804    13.2375    26.7852 H            1 NAI1372   0.0000
    71 H6N         43.2981    13.6307    29.0240 H            1 NAI1372   0.0000
@<TRIPOS>BOND
     1    1    2      ar
     2    1    3      ar
     3    1    4       1
     4    1   23       1
     5    4    5       1
     6    5    6       1
     7    6    7       1
     8    6    8       1
     9    7   12       1
    10    8    9       1
    11    8   10       1
    12   10   11       1
    13   10   12       1
    14   12   13       1
    15   13   14       1
    16   13   22       1
    17   14   15       2
    18   15   16       1
    19   16   17      ar
    20   16   22      ar
    21   17   18       1
    22   17   19      ar
    23   19   20      ar
    24   20   21      ar
    25   21   22      ar
    26   23   24       1
    27   24   25      ar
    28   24   26      ar
    29   24   27       1
    30   27   28       1
    31   28   29       1
    32   29   30       1
    33   29   31       1
    34   30   35       1
    35   31   32       1
    36   31   33       1
    37   33   34       1
    38   33   35       1
    39   35   36       1
    40   36   37       1
    41   36   44       1
    42   37   38       2
    43   38   39       1
    44   38   42       1
    45   39   40       2
    46   39   41      am
    47   42   43       1
    48   43   44       2
    49   44   71       1
    50    5   45       1
    51    5   46       1
    52    6   47       1
    53    8   48       1
    54    9   49       1
    55   10   50       1
    56   11   51       1
    57   12   52       1
    58   14   53       1
    59   18   54       1
    60   18   55       1
    61   20   56       1
    62   43   70       1
    63   28   57       1
    64   28   58       1
    65   29   59       1
    66   31   60       1
    67   32   61       1
    68   33   62       1
    69   34   63       1
    70   35   64       1
    71   37   65       1
    72   41   66       1
    73   41   67       1
    74   42   68       1
    75   42   69       1
@<TRIPOS>SUBSTRUCTURE
     1 NAI1372     1 GROUP             4 B     NAI     0 **** NAI B1372
