@<TRIPOS>MOLECULE
3d73_NBB_2_ligand
   29    29     1     0     0
SMALL
NO_CHARGES


@<TRIPOS>ATOM
     1 O1S         15.6990    29.8830   -26.2180 O.2          1 NBB120   0.0000
     2 S           17.0360    29.2660   -26.1900 S.o2         1 NBB120   0.0000
     3 O2S         17.2360    28.3650   -27.3680 O.2          1 NBB120   0.0000
     4 N10         17.1980    28.3580   -24.9600 N.3          1 NBB120   0.0000
     5 C11         18.4510    27.6030   -24.8480 C.3          1 NBB120   0.0000
     6 C12         18.7130    27.3070   -23.3620 C.3          1 NBB120   0.0000
     7 C13         20.0660    26.6230   -23.1760 C.3          1 NBB120   0.0000
     8 C14         20.2620    25.9900   -21.8080 C.3          1 NBB120   0.0000
     9 C4          18.2070    30.3990   -26.2320 C.ar         1 NBB120   0.0000
    10 C5          18.2870    31.3500   -25.2330 C.ar         1 NBB120   0.0000
    11 C6          19.3060    32.3230   -25.2710 C.ar         1 NBB120   0.0000
    12 C1          20.2680    32.3340   -26.2900 C.ar         1 NBB120   0.0000
    13 C2          20.2100    31.3640   -27.2900 C.ar         1 NBB120   0.0000
    14 C3          19.1840    30.4180   -27.2480 C.ar         1 NBB120   0.0000
    15 H1          17.1201    28.9351   -24.1470 H            1 NBB120   0.0000
    16 H2          19.2047    28.1434   -25.2220 H            1 NBB120   0.0000
    17 H3          18.3734    26.7441   -25.3542 H            1 NBB120   0.0000
    18 H4          17.9919    26.7073   -23.0150 H            1 NBB120   0.0000
    19 H5          18.7069    28.1662   -22.8504 H            1 NBB120   0.0000
    20 H6          20.7838    27.3060   -23.3111 H            1 NBB120   0.0000
    21 H7          20.1529    25.9066   -23.8683 H            1 NBB120   0.0000
    22 H8          21.1661    25.5649   -21.7639 H            1 NBB120   0.0000
    23 H9          20.1899    26.6940   -21.1015 H            1 NBB120   0.0000
    24 H10         19.5590    25.2947   -21.6586 H            1 NBB120   0.0000
    25 H11         17.6235    31.3480   -24.4848 H            1 NBB120   0.0000
    26 H12         19.3433    33.0205   -24.5554 H            1 NBB120   0.0000
    27 H13         20.9871    33.0288   -26.2998 H            1 NBB120   0.0000
    28 H14         20.8900    31.3462   -28.0230 H            1 NBB120   0.0000
    29 H15         19.1404    29.7256   -27.9682 H            1 NBB120   0.0000
@<TRIPOS>BOND
     1    1    2       2
     2    2    3       2
     3    2    4       1
     4    2    9       1
     5    4    5       1
     6    5    6       1
     7    6    7       1
     8    7    8       1
     9    9   10      ar
    10    9   14      ar
    11   10   11      ar
    12   11   12      ar
    13   12   13      ar
    14   13   14      ar
    15    4   15       1
    16    5   16       1
    17    5   17       1
    18    6   18       1
    19    6   19       1
    20    7   20       1
    21    7   21       1
    22    8   22       1
    23    8   23       1
    24    8   24       1
    25   10   25       1
    26   11   26       1
    27   12   27       1
    28   13   28       1
    29   14   29       1
@<TRIPOS>SUBSTRUCTURE
     1 NBB120      1 GROUP             4 B     NBB     0 **** NBB B 120
