@<TRIPOS>MOLECULE
4je5_PLP_1_ligand
   26    26     1     0     0
SMALL
NO_CHARGES


@<TRIPOS>ATOM
     1 N1          73.5420   -19.7730    11.4680 N.ar         1 PLP601   1.0000
     2 C2          72.7940   -18.7690    10.8820 C.ar         1 PLP601   0.0000
     3 C2A         73.3970   -17.8490     9.8700 C.3          1 PLP601   0.0000
     4 C3          71.4650   -18.5840    11.2490 C.ar         1 PLP601   0.0000
     5 O3          70.7890   -17.5730    10.6370 O.3          1 PLP601   0.0000
     6 C4          70.8560   -19.4410    12.1950 C.ar         1 PLP601   0.0000
     7 C4A         69.4070   -19.2470    12.5880 C.3          1 PLP601   0.0000
     8 C5          71.6350   -20.4710    12.7640 C.ar         1 PLP601   0.0000
     9 C6          72.9740   -20.6150    12.3990 C.ar         1 PLP601   0.0000
    10 C5A         71.0800   -21.4190    13.8070 C.3          1 PLP601   0.0000
    11 O4P         71.4900   -22.7460    13.5190 O.3          1 PLP601   0.0000
    12 P           71.1170   -23.8950    14.5830 P.3          1 PLP601   0.0000
    13 O1P         71.9090   -23.7120    15.8850 O.co2        1 PLP601   0.0000
    14 O2P         71.5290   -25.1630    13.9060 O.co2        1 PLP601  -1.0000
    15 O3P         69.6330   -23.7990    14.9670 O.co2        1 PLP601  -1.0000
    16 H2A1        72.7070   -17.1939     9.5621 H            1 PLP601   0.0000
    17 H2A2        74.1637   -17.3567    10.2821 H            1 PLP601   0.0000
    18 H2A3        73.7237   -18.3809     9.0888 H            1 PLP601   0.0000
    19 H4          69.8313   -17.4006    10.8674 H            1 PLP601   0.0000
    20 H4A1        69.1490   -19.9389    13.2623 H            1 PLP601   0.0000
    21 H4A2        69.2878   -18.3360    12.9828 H            1 PLP601   0.0000
    22 H4A3        68.8270   -19.3380    11.7785 H            1 PLP601   0.0000
    23 H8          73.5266   -21.3361    12.8170 H            1 PLP601   0.0000
    24 H5A1        70.0811   -21.3716    13.8003 H            1 PLP601   0.0000
    25 H5A2        71.4202   -21.1552    14.7096 H            1 PLP601   0.0000
    26 H11         74.5023   -19.8890    11.2144 H            1 PLP601   0.0000
@<TRIPOS>BOND
     1    1    2      ar
     2    1    9      ar
     3    2    3       1
     4    2    4      ar
     5    4    5       1
     6    4    6      ar
     7    6    7       1
     8    6    8      ar
     9    8    9      ar
    10    8   10       1
    11   10   11       1
    12   11   12       1
    13   12   13      ar
    14   12   14      ar
    15   12   15      ar
    16    3   16       1
    17    3   17       1
    18    3   18       1
    19    5   19       1
    20    7   20       1
    21    7   21       1
    22    7   22       1
    23    9   23       1
    24   10   24       1
    25   10   25       1
    26    1   26       1
@<TRIPOS>SUBSTRUCTURE
     1 PLP601      1 GROUP             4 A     PLP     0 **** PLP A 601
