@<TRIPOS>MOLECULE
5j23_A2R_1_ligand
   60    63     1     0     0
SMALL
NO_CHARGES


@<TRIPOS>ATOM
     1 OP3         11.4530    65.3460   101.2790 O.co2        1 A2R403   0.0000
     2 P2'         11.3280    64.2170   100.2710 P.3          1 A2R403   0.0000
     3 OP1         12.4930    63.2430   100.3760 O.co2        1 A2R403  -1.0000
     4 OP2          9.9990    63.5330   100.3710 O.co2        1 A2R403  -1.0000
     5 O2'         11.4940    64.9600    98.8450 O.3          1 A2R403   0.0000
     6 C2'         10.4090    65.6320    98.1700 C.3          1 A2R403   0.0000
     7 C1'         10.6520    67.1300    98.2790 C.3          1 A2R403   0.0000
     8 N9          10.1730    67.7050    99.5320 N.pl3        1 A2R403   0.0000
     9 C4          10.9290    68.3080   100.5090 C.ar         1 A2R403   0.0000
    10 N3          12.2560    68.5000   100.5130 N.ar         1 A2R403   0.0000
    11 C2          12.6580    69.0730   101.6520 C.ar         1 A2R403   0.0000
    12 N1          11.9240    69.4520   102.7040 N.ar         1 A2R403   0.0000
    13 C6          10.5880    69.2440   102.6720 C.ar         1 A2R403   0.0000
    14 N6           9.8630    69.5840   103.7400 N.pl3        1 A2R403   0.0000
    15 C5          10.0420    68.6450   101.5180 C.ar         1 A2R403   0.0000
    16 N7           8.7490    68.2720   101.1810 N.2          1 A2R403   0.0000
    17 C8           8.8850    67.7190   100.0000 C.2          1 A2R403   0.0000
    18 O4'          9.9320    67.6960    97.2000 O.3          1 A2R403   0.0000
    19 C3'         10.5010    65.4480    96.6610 C.3          1 A2R403   0.0000
    20 O3'         11.8610    65.3630    96.2570 O.3          1 A2R403   0.0000
    21 C4'          9.8870    66.7410    96.1130 C.3          1 A2R403   0.0000
    22 C5'          8.4750    66.6110    95.5990 C.3          1 A2R403   0.0000
    23 O5'          8.4600    65.6170    94.5520 O.3          1 A2R403   0.0000
    24 P            7.0840    65.0550    93.9950 P.3          1 A2R403   0.0000
    25 O1           6.1710    64.6070    95.0910 O.co2        1 A2R403   0.0000
    26 O2           7.3190    63.9000    93.0490 O.co2        1 A2R403  -1.0000
    27 O3           6.4030    66.2560    93.1910 O.3          1 A2R403   0.0000
    28 P1           6.7210    67.0290    91.8310 P.3          1 A2R403   0.0000
    29 O11          5.8870    66.3940    90.7430 O.co2        1 A2R403   0.0000
    30 O12          8.1820    66.9490    91.4730 O.co2        1 A2R403  -1.0000
    31 O15'         6.1360    68.4970    92.0980 O.3          1 A2R403   0.0000
    32 C15'         6.5160    69.2450    93.2670 C.3          1 A2R403   0.0000
    33 C14'         5.6820    70.4980    93.3410 C.3          1 A2R403   0.0000
    34 C13'         4.1730    70.3050    93.4160 C.3          1 A2R403   0.0000
    35 O13'         3.7000    70.0780    94.7410 O.3          1 A2R403   0.0000
    36 C12'         3.6470    71.6230    92.8260 C.3          1 A2R403   0.0000
    37 O12'         3.0300    72.4400    93.8080 O.3          1 A2R403   0.0000
    38 C11'         4.9050    72.3160    92.3050 C.3          1 A2R403   0.0000
    39 O14'         5.8620    71.2750    92.1440 O.3          1 A2R403   0.0000
    40 O11'         4.6080    72.9250    91.1160 O.3          1 A2R403   0.0000
    41 H2'          9.5151    65.3657    98.5306 H            1 A2R403   0.0000
    42 H1'         11.6274    67.3221    98.1711 H            1 A2R403   0.0000
    43 H3          13.6409    69.2411   101.7278 H            1 A2R403   0.0000
    44 H4           8.8735    69.4395   103.7392 H            1 A2R403   0.0000
    45 H5          10.3094    69.9832   104.5409 H            1 A2R403   0.0000
    46 H6           8.1157    67.3403    99.4854 H            1 A2R403   0.0000
    47 H3'          9.9836    64.6463    96.3618 H            1 A2R403   0.0000
    48 H8          12.4036    64.9623    96.9953 H            1 A2R403   0.0000
    49 H4'         10.4658    67.0776    95.3702 H            1 A2R403   0.0000
    50 H5'1         8.1661    67.4896    95.2348 H            1 A2R403   0.0000
    51 H5'2         7.8698    66.3271    96.3427 H            1 A2R403   0.0000
    52 H12          7.4839    69.4896    93.2085 H            1 A2R403   0.0000
    53 H13          6.3612    68.6905    94.0847 H            1 A2R403   0.0000
    54 H14          5.9793    71.0397    94.1272 H            1 A2R403   0.0000
    55 H15          3.9026    69.5427    92.8280 H            1 A2R403   0.0000
    56 H16          2.7690    70.4324    94.8279 H            1 A2R403   0.0000
    57 H17          3.0125    71.4406    92.0749 H            1 A2R403   0.0000
    58 H18          2.3132    72.9910    93.3807 H            1 A2R403   0.0000
    59 H19          5.2315    72.9891    92.9686 H            1 A2R403   0.0000
    60 H20          5.1843    73.7344    91.0029 H            1 A2R403   0.0000
@<TRIPOS>BOND
     1    1    2      ar
     2    2    3      ar
     3    2    4      ar
     4    2    5       1
     5    5    6       1
     6    6    7       1
     7    6   19       1
     8    7    8       1
     9    7   18       1
    10    8    9       1
    11    8   17       1
    12    9   10      ar
    13    9   15      ar
    14   10   11      ar
    15   11   12      ar
    16   12   13      ar
    17   13   14       1
    18   13   15      ar
    19   15   16       1
    20   16   17       2
    21   18   21       1
    22   19   20       1
    23   19   21       1
    24   21   22       1
    25   22   23       1
    26   23   24       1
    27   24   25      ar
    28   24   26      ar
    29   24   27       1
    30   27   28       1
    31   28   29      ar
    32   28   30      ar
    33   28   31       1
    34   31   32       1
    35   32   33       1
    36   33   34       1
    37   33   39       1
    38   34   35       1
    39   34   36       1
    40   36   37       1
    41   36   38       1
    42   38   39       1
    43   38   40       1
    44   40   60       1
    45   38   59       1
    46    6   41       1
    47    7   42       1
    48   11   43       1
    49   14   44       1
    50   14   45       1
    51   17   46       1
    52   19   47       1
    53   20   48       1
    54   21   49       1
    55   22   50       1
    56   22   51       1
    57   37   58       1
    58   36   57       1
    59   32   52       1
    60   32   53       1
    61   33   54       1
    62   34   55       1
    63   35   56       1
@<TRIPOS>SUBSTRUCTURE
     1 A2R403      1 GROUP             4 A     A2R     0 **** A2R A 403
