@<TRIPOS>MOLECULE
4zlg_LGC_1_ligand
   22    22     1     0     0
SMALL
NO_CHARGES


@<TRIPOS>ATOM
     1 C1         -67.1520    28.7090     3.6280 C.2          1 LGC804   0.0000
     2 C2         -67.8120    27.7820     4.6450 C.3          1 LGC804   0.0000
     3 O5         -66.2650    28.2430     2.6640 O.3          1 LGC804   0.0000
     4 O1         -67.4290    29.9250     3.5740 O.2          1 LGC804   0.0000
     5 O2         -67.8890    28.4870     5.9080 O.3          1 LGC804   0.0000
     6 C3         -66.9430    26.5020     4.8980 C.3          1 LGC804   0.0000
     7 O3         -67.7180    25.5350     5.6380 O.3          1 LGC804   0.0000
     8 C4         -66.5090    25.9430     3.5070 C.3          1 LGC804   0.0000
     9 O4         -65.7820    24.7080     3.6680 O.3          1 LGC804   0.0000
    10 C5         -65.6430    26.9450     2.7800 C.3          1 LGC804   0.0000
    11 C6         -65.2250    26.6330     1.3480 C.3          1 LGC804   0.0000
    12 O6         -66.4080    26.5400     0.5270 O.3          1 LGC804   0.0000
    13 H1         -68.7273    27.5239     4.3358 H            1 LGC804   0.0000
    14 H2         -67.1264    29.1301     5.9778 H            1 LGC804   0.0000
    15 H3         -66.1303    26.7505     5.4250 H            1 LGC804   0.0000
    16 H4         -67.9944    25.9296     6.5143 H            1 LGC804   0.0000
    17 H5         -67.3275    25.7669     2.9602 H            1 LGC804   0.0000
    18 H6         -65.9281    24.1282     2.8664 H            1 LGC804   0.0000
    19 H7         -64.8070    27.0615     3.3162 H            1 LGC804   0.0000
    20 H8         -64.7304    25.7642     1.3242 H            1 LGC804   0.0000
    21 H9         -64.6339    27.3626     1.0041 H            1 LGC804   0.0000
    22 H10        -66.3645    27.2261    -0.1992 H            1 LGC804   0.0000
@<TRIPOS>BOND
     1    1    2       1
     2    1    3       1
     3    1    4       2
     4    2    5       1
     5    2    6       1
     6    3   10       1
     7    6    7       1
     8    6    8       1
     9    8    9       1
    10    8   10       1
    11   10   11       1
    12   11   12       1
    13    2   13       1
    14    5   14       1
    15    6   15       1
    16    7   16       1
    17    8   17       1
    18    9   18       1
    19   10   19       1
    20   11   20       1
    21   11   21       1
    22   12   22       1
@<TRIPOS>SUBSTRUCTURE
     1 LGC804      1 GROUP             4 A     LGC     0 **** LGC A 804
