@<TRIPOS>MOLECULE
3zrl_ZRL_2_ligand
   24    26     1     0     0
SMALL
NO_CHARGES


@<TRIPOS>ATOM
     1 C13        104.4750    59.5480    46.1710 C.ar         1 ZRL1390   0.0000
     2 C17        106.5630    58.9600    47.1000 C.ar         1 ZRL1390   0.0000
     3 C8         105.8150    61.9130    44.8850 C.2          1 ZRL1390   0.0000
     4 C14        103.9460    58.4080    46.7420 C.ar         1 ZRL1390   0.0000
     5 C16        105.9340    57.8510    47.6260 C.ar         1 ZRL1390   0.0000
     6 C12        105.8110    59.8370    46.3500 C.ar         1 ZRL1390   0.0000
     7 C7         106.6810    62.9650    44.4960 C.2          1 ZRL1390   0.0000
     8 C9         106.3910    61.0250    45.7650 C.2          1 ZRL1390   0.0000
     9 C11        107.9180    62.8690    45.0830 C.2          1 ZRL1390   0.0000
    10 C3         108.6900    64.7700    44.0450 C.2          1 ZRL1390   0.0000
    11 C5         106.4020    64.0530    43.6000 C.2          1 ZRL1390   0.0000
    12 C2         108.9640    63.7650    44.8800 C.2          1 ZRL1390   0.0000
    13 N15        104.6420    57.5320    47.4780 N.ar         1 ZRL1390   0.0000
    14 N4         107.4690    64.9130    43.4340 N.pl3        1 ZRL1390   0.0000
    15 O6         105.3170    64.1850    43.0590 O.2          1 ZRL1390   0.0000
    16 S10        108.0100    61.5010    46.1140 S.3          1 ZRL1390   0.0000
    17 BR1        110.6070    63.5400    45.7380 Br           1 ZRL1390   0.0000
    18 H1         103.8944    60.1586    45.6324 H            1 ZRL1390   0.0000
    19 H2         107.5369    59.1227    47.2586 H            1 ZRL1390   0.0000
    20 H3         104.8761    61.8243    44.5524 H            1 ZRL1390   0.0000
    21 H4         102.9742    58.2232    46.5957 H            1 ZRL1390   0.0000
    22 H5         106.4955    57.2265    48.1689 H            1 ZRL1390   0.0000
    23 H6         109.4028    65.4457    43.8571 H            1 ZRL1390   0.0000
    24 H7         107.3435    65.6962    42.8251 H            1 ZRL1390   0.0000
@<TRIPOS>BOND
     1    1    4      ar
     2    1    6      ar
     3    2    5      ar
     4    2    6      ar
     5    3    7       1
     6    3    8       2
     7    4   13      ar
     8    5   13      ar
     9    6    8       1
    10    7    9       2
    11    7   11       1
    12    8   16       1
    13    9   12       1
    14    9   16       1
    15   10   12       2
    16   10   14       1
    17   11   14       1
    18   11   15       2
    19   12   17       1
    20    1   18       1
    21    2   19       1
    22    3   20       1
    23    4   21       1
    24    5   22       1
    25   10   23       1
    26   14   24       1
@<TRIPOS>SUBSTRUCTURE
     1 ZRL1390     1 GROUP             4 B     ZRL     0 **** ZRL B1390
