@<TRIPOS>MOLECULE
2d81_RB3_1_ligand
   38    37     1     0     0
SMALL
NO_CHARGES


@<TRIPOS>ATOM
     1 O1M         18.7200   -11.6310    25.1480 O.co2        1 RB3451   0.0000
     2 C1A         19.1530   -10.4860    24.8930 C.2          1 RB3451   0.0000
     3 O1A         20.1850    -9.9690    25.3740 O.co2        1 RB3451  -1.0000
     4 C2A         18.3460    -9.6440    23.9020 C.3          1 RB3451   0.0000
     5 C3A         17.9200    -8.3110    24.5210 C.3          1 RB3451   0.0000
     6 C4A         17.1010    -7.5340    23.4880 C.3          1 RB3451   0.0000
     7 O3A         17.1110    -8.5660    25.6810 O.3          1 RB3451   0.0000
     8 C1B         17.3450    -7.6770    26.6850 C.2          1 RB3451   0.0000
     9 O1B         17.8150    -6.5660    26.4450 O.2          1 RB3451   0.0000
    10 C2B         17.0110    -8.0980    28.1180 C.3          1 RB3451   0.0000
    11 C3B         16.9500    -6.9220    29.0980 C.3          1 RB3451   0.0000
    12 C4B         15.8240    -5.9510    28.7360 C.3          1 RB3451   0.0000
    13 O3B         16.7030    -7.4290    30.4190 O.3          1 RB3451   0.0000
    14 C1C         17.8460    -7.8050    31.0540 C.2          1 RB3451   0.0000
    15 O1C         18.7760    -8.3010    30.4190 O.2          1 RB3451   0.0000
    16 C2C         17.9520    -7.6160    32.5690 C.3          1 RB3451   0.0000
    17 C3C         18.1710    -8.9550    33.2760 C.3          1 RB3451   0.0000
    18 C4C         18.2450    -8.7570    34.7910 C.3          1 RB3451   0.0000
    19 O3C         17.1090    -9.8520    32.9420 O.3          1 RB3451   0.0000
    20 H2A1        17.5290   -10.1534    23.6318 H            1 RB3451   0.0000
    21 H2A2        18.9082    -9.4633    23.0950 H            1 RB3451   0.0000
    22 H3A         18.7287    -7.7830    24.7802 H            1 RB3451   0.0000
    23 H4A1        16.8151    -6.6591    23.8789 H            1 RB3451   0.0000
    24 H4A2        17.6597    -7.3692    22.6752 H            1 RB3451   0.0000
    25 H4A3        16.2929    -8.0659    23.2348 H            1 RB3451   0.0000
    26 H2B1        17.7130    -8.7369    28.4326 H            1 RB3451   0.0000
    27 H2B2        16.1215    -8.5549    28.1152 H            1 RB3451   0.0000
    28 H3B         17.8237    -6.4356    29.0873 H            1 RB3451   0.0000
    29 H4B1        15.8104    -5.1967    29.3924 H            1 RB3451   0.0000
    30 H4B2        15.9781    -5.5898    27.8163 H            1 RB3451   0.0000
    31 H4B3        14.9477    -6.4319    28.7627 H            1 RB3451   0.0000
    32 H2C1        17.1064    -7.2026    32.9067 H            1 RB3451   0.0000
    33 H2C2        18.7223    -7.0107    32.7697 H            1 RB3451   0.0000
    34 H3C         19.0348    -9.3477    32.9605 H            1 RB3451   0.0000
    35 H4C1        18.3882    -9.6410    35.2361 H            1 RB3451   0.0000
    36 H4C2        19.0057    -8.1462    35.0106 H            1 RB3451   0.0000
    37 H4C3        17.3895    -8.3544    35.1167 H            1 RB3451   0.0000
    38 H19         17.2535   -10.7266    33.4048 H            1 RB3451   0.0000
@<TRIPOS>BOND
     1    1    2      ar
     2    2    3      ar
     3    2    4       1
     4    4    5       1
     5    5    6       1
     6    5    7       1
     7    7    8       1
     8    8    9       2
     9    8   10       1
    10   10   11       1
    11   11   12       1
    12   11   13       1
    13   13   14       1
    14   14   15       2
    15   14   16       1
    16   16   17       1
    17   17   18       1
    18   17   19       1
    19   19   38       1
    20    4   20       1
    21    4   21       1
    22    5   22       1
    23    6   23       1
    24    6   24       1
    25    6   25       1
    26   10   26       1
    27   10   27       1
    28   11   28       1
    29   12   29       1
    30   12   30       1
    31   12   31       1
    32   16   32       1
    33   16   33       1
    34   17   34       1
    35   18   35       1
    36   18   36       1
    37   18   37       1
@<TRIPOS>SUBSTRUCTURE
     1 RB3451      1 GROUP             4 A     RB3     0 **** RB3 A 451
