@<TRIPOS>MOLECULE
3llk_FAD_3_ligand
   84    89     1     0     0
SMALL
NO_CHARGES


@<TRIPOS>ATOM
     1 PA           0.1140    28.5040    47.5360 P.3          1 FAD550   0.0000
     2 O1A         -0.5140    28.1830    46.2270 O.co2        1 FAD550   0.0000
     3 O2A         -0.4120    29.5480    48.4590 O.co2        1 FAD550  -1.0000
     4 O5B          1.6440    28.8070    47.3520 O.3          1 FAD550   0.0000
     5 C5B          2.4570    28.3680    46.2610 C.3          1 FAD550   0.0000
     6 C4B          3.8130    28.2490    46.9030 C.3          1 FAD550   0.0000
     7 O4B          4.4160    29.5630    46.7520 O.3          1 FAD550   0.0000
     8 C3B          4.1750    27.6180    48.2670 C.3          1 FAD550   0.0000
     9 O3B          4.2680    26.1930    48.2960 O.3          1 FAD550   0.0000
    10 C2B          5.3830    28.3760    48.5830 C.3          1 FAD550   0.0000
    11 O2B          6.5750    27.8330    48.1040 O.3          1 FAD550   0.0000
    12 C1B          5.1980    29.7580    47.9360 C.3          1 FAD550   0.0000
    13 N9A          4.6410    30.8290    48.7000 N.pl3        1 FAD550   0.0000
    14 C8A          3.7570    30.8650    49.8100 C.2          1 FAD550   0.0000
    15 N7A          3.4860    32.0350    50.2890 N.2          1 FAD550   0.0000
    16 C5A          4.2390    32.8620    49.4680 C.ar         1 FAD550   0.0000
    17 C6A          4.4060    34.2610    49.5130 C.ar         1 FAD550   0.0000
    18 N6A          3.8330    35.0440    50.4360 N.pl3        1 FAD550   0.0000
    19 N1A          5.2370    34.8850    48.6020 N.ar         1 FAD550   0.0000
    20 C2A          5.9770    34.2040    47.6830 C.ar         1 FAD550   0.0000
    21 N3A          5.8190    32.8110    47.6350 N.ar         1 FAD550   0.0000
    22 C4A          4.9240    32.1900    48.5620 C.ar         1 FAD550   0.0000
    23 N1          -8.1990    30.1510    47.5080 N.2          1 FAD550   0.0000
    24 C2          -9.2960    30.2040    48.3420 C.2          1 FAD550   0.0000
    25 O2          -9.6940    29.1260    48.8090 O.2          1 FAD550   0.0000
    26 N3          -9.7280    31.5150    48.5090 N.pl3        1 FAD550   0.0000
    27 C4          -9.1910    32.6970    47.9470 C.2          1 FAD550   0.0000
    28 O4          -9.7470    33.8230    48.1750 O.2          1 FAD550   0.0000
    29 C4X         -8.0950    32.5350    47.1250 C.2          1 FAD550   0.0000
    30 N5          -7.5410    33.6540    46.4220 N.2          1 FAD550   0.0000
    31 C5X         -6.4910    33.5480    45.4720 C.ar         1 FAD550   0.0000
    32 C6          -6.1140    34.7060    44.7630 C.ar         1 FAD550   0.0000
    33 C7          -5.0450    34.5980    43.8300 C.ar         1 FAD550   0.0000
    34 C7M         -4.6940    35.8930    43.0960 C.3          1 FAD550   0.0000
    35 C8          -4.3670    33.3620    43.6130 C.ar         1 FAD550   0.0000
    36 C8M         -3.1980    33.0530    42.7010 C.3          1 FAD550   0.0000
    37 C9          -4.7920    32.2310    44.3090 C.ar         1 FAD550   0.0000
    38 C9A         -5.8780    32.2210    45.2220 C.ar         1 FAD550   0.0000
    39 N10         -6.4860    31.1680    46.0780 N.pl3        1 FAD550   0.0000
    40 C10         -7.5810    31.2180    46.9010 C.2          1 FAD550   0.0000
    41 C1'         -5.7600    29.9390    46.1350 C.3          1 FAD550   0.0000
    42 C2'         -4.7120    29.7730    47.1950 C.3          1 FAD550   0.0000
    43 O2'         -3.9910    31.0140    47.3980 O.3          1 FAD550   0.0000
    44 C3'         -3.6900    28.6920    47.0160 C.3          1 FAD550   0.0000
    45 O3'         -3.0460    28.8320    45.7550 O.3          1 FAD550   0.0000
    46 C4'         -4.0690    27.2390    47.2530 C.3          1 FAD550   0.0000
    47 O4'         -4.9280    27.1140    48.4250 O.3          1 FAD550   0.0000
    48 C5'         -2.9960    26.2370    47.2810 C.3          1 FAD550   0.0000
    49 O5'         -2.1870    26.5290    48.4250 O.3          1 FAD550   0.0000
    50 P           -0.7540    25.9830    48.6680 P.3          1 FAD550   0.0000
    51 O1P         -0.7480    25.7080    50.1050 O.co2        1 FAD550   0.0000
    52 O2P         -0.4150    24.8270    47.7970 O.co2        1 FAD550  -1.0000
    53 O3P          0.3110    27.1460    48.3480 O.3          1 FAD550   0.0000
    54 H5B1         2.4641    29.0402    45.5206 H            1 FAD550   0.0000
    55 H5B2         2.1444    27.4862    45.9077 H            1 FAD550   0.0000
    56 H4B          4.3241    27.6887    46.2512 H            1 FAD550   0.0000
    57 H3B          3.4690    27.8881    48.9217 H            1 FAD550   0.0000
    58 H5           3.3888    25.7961    48.0325 H            1 FAD550   0.0000
    59 H2B          5.4495    28.4859    49.5747 H            1 FAD550   0.0000
    60 H7           7.3394    28.4203    48.3699 H            1 FAD550   0.0000
    61 H1B          6.1034    30.0589    47.6364 H            1 FAD550   0.0000
    62 H8A          3.3655    30.0316    50.2000 H            1 FAD550   0.0000
    63 H6A1         3.9871    36.0319    50.4190 H            1 FAD550   0.0000
    64 H6A2         3.2510    34.6408    51.1422 H            1 FAD550   0.0000
    65 H2A          6.6071    34.6778    47.0678 H            1 FAD550   0.0000
    66 H13        -10.5221    31.6385    49.1042 H            1 FAD550   0.0000
    67 H14         -6.5831    35.5766    44.9109 H            1 FAD550   0.0000
    68 H7M1        -3.9369    35.7238    42.4650 H            1 FAD550   0.0000
    69 H7M2        -5.4908    36.2117    42.5827 H            1 FAD550   0.0000
    70 H7M3        -4.4248    36.5902    43.7604 H            1 FAD550   0.0000
    71 H8M1        -2.9591    32.0853    42.7816 H            1 FAD550   0.0000
    72 H8M2        -3.4504    33.2564    41.7550 H            1 FAD550   0.0000
    73 H8M3        -2.4127    33.6133    42.9643 H            1 FAD550   0.0000
    74 H21         -4.3009    31.3736    44.1551 H            1 FAD550   0.0000
    75 H1'1        -5.3064    29.8233    45.2513 H            1 FAD550   0.0000
    76 H1'2        -6.4290    29.2071    46.2647 H            1 FAD550   0.0000
    77 H2'         -5.1938    29.5761    48.0489 H            1 FAD550   0.0000
    78 H25         -3.2977    30.8846    48.1069 H            1 FAD550   0.0000
    79 H3'         -2.9813    28.8896    47.6932 H            1 FAD550   0.0000
    80 H27         -2.1105    28.4844    45.8181 H            1 FAD550   0.0000
    81 H4'         -4.6452    26.9866    46.4756 H            1 FAD550   0.0000
    82 H29         -5.7627    27.6466    48.2849 H            1 FAD550   0.0000
    83 H5'1        -2.4473    26.2968    46.4471 H            1 FAD550   0.0000
    84 H5'2        -3.3844    25.3188    47.3594 H            1 FAD550   0.0000
@<TRIPOS>BOND
     1    1    2      ar
     2    1    3      ar
     3    1    4       1
     4    1   53       1
     5    4    5       1
     6    5    6       1
     7    6    7       1
     8    6    8       1
     9    7   12       1
    10    8    9       1
    11    8   10       1
    12   10   11       1
    13   10   12       1
    14   12   13       1
    15   13   14       1
    16   13   22       1
    17   14   15       2
    18   15   16       1
    19   16   17      ar
    20   16   22      ar
    21   17   18       1
    22   17   19      ar
    23   19   20      ar
    24   20   21      ar
    25   21   22      ar
    26   23   24       1
    27   23   40       2
    28   24   25       2
    29   24   26       1
    30   26   27       1
    31   27   28       2
    32   27   29       1
    33   29   30       2
    34   29   40       1
    35   30   31       1
    36   31   32      ar
    37   31   38      ar
    38   32   33      ar
    39   33   34       1
    40   33   35      ar
    41   35   36       1
    42   35   37      ar
    43   37   38      ar
    44   38   39       1
    45   39   40       1
    46   39   41       1
    47   41   42       1
    48   42   43       1
    49   42   44       1
    50   44   45       1
    51   44   46       1
    52   46   47       1
    53   46   48       1
    54   48   49       1
    55   49   50       1
    56   50   51      ar
    57   50   52      ar
    58   50   53       1
    59   48   84       1
    60    5   54       1
    61    5   55       1
    62    6   56       1
    63    8   57       1
    64    9   58       1
    65   10   59       1
    66   11   60       1
    67   12   61       1
    68   14   62       1
    69   18   63       1
    70   18   64       1
    71   20   65       1
    72   26   66       1
    73   32   67       1
    74   34   68       1
    75   34   69       1
    76   34   70       1
    77   36   71       1
    78   36   72       1
    79   36   73       1
    80   37   74       1
    81   41   75       1
    82   41   76       1
    83   42   77       1
    84   43   78       1
    85   44   79       1
    86   45   80       1
    87   46   81       1
    88   47   82       1
    89   48   83       1
@<TRIPOS>SUBSTRUCTURE
     1 FAD550      1 GROUP             4 C     FAD     0 **** FAD C 550
