@<TRIPOS>MOLECULE
3vp6_HLD_1_ligand
   15    15     1     0     0
SMALL
NO_CHARGES


@<TRIPOS>ATOM
     1 OAC        -11.8680     0.5190    24.5300 O.2          1 HLD1001   0.0000
     2 CAM        -12.0720     1.7130    24.8380 C.2          1 HLD1001   0.0000
     3 CAF        -13.2950     2.2990    24.5010 C.2          1 HLD1001   0.0000
     4 CAK        -13.5130     3.6390    24.8140 C.2          1 HLD1001   0.0000
     5 CAI        -14.8190     4.3350    24.5910 C.2          1 HLD1001   0.0000
     6 OAD        -15.7030     3.8230    23.8930 O.co2        1 HLD1001   0.0000
     7 OAA        -15.0100     5.4200    25.1700 O.co2        1 HLD1001  -1.0000
     8 CAG        -11.0780     2.4580    25.4890 C.2          1 HLD1001   0.0000
     9 CAL        -11.3360     3.8000    25.8080 C.2          1 HLD1001   0.0000
    10 OAH        -12.5430     4.3480    25.4640 O.2          1 HLD1001   0.0000
    11 CAJ        -10.3880     4.6860    26.5630 C.2          1 HLD1001   0.0000
    12 OAE         -9.3670     4.2140    27.1040 O.co2        1 HLD1001   0.0000
    13 OAB        -10.6840     5.8990    26.6640 O.co2        1 HLD1001  -1.0000
    14 HAF        -14.0039     1.7639    24.0415 H            1 HLD1001   0.0000
    15 HAG        -10.2000     2.0399    25.7220 H            1 HLD1001   0.0000
@<TRIPOS>BOND
     1    1    2       2
     2    2    3       1
     3    2    8       1
     4    3    4       2
     5    4    5       1
     6    4   10       1
     7    5    6      ar
     8    5    7      ar
     9    8    9       2
    10    9   10       1
    11    9   11       1
    12   11   12      ar
    13   11   13      ar
    14    3   14       1
    15    8   15       1
@<TRIPOS>SUBSTRUCTURE
     1 HLD1001     1 GROUP             4 A     HLD     0 **** HLD A1001
