@<TRIPOS>MOLECULE
4ymv_ATP_2_ligand
   43    45     1     0     0
SMALL
NO_CHARGES


@<TRIPOS>ATOM
     1 PG         -18.5440    30.8130    13.2130 P.3          1 ATP301   0.0000
     2 O1G        -18.9880    29.5280    13.8950 O.co2        1 ATP301   0.0000
     3 O2G        -17.2660    30.7050    12.3720 O.co2        1 ATP301  -1.0000
     4 O3G        -19.7100    31.5390    12.5520 O.co2        1 ATP301  -1.0000
     5 PB         -17.1150    32.9720    14.3510 P.3          1 ATP301   0.0000
     6 O1B        -16.7860    33.2680    15.8070 O.co2        1 ATP301   0.0000
     7 O2B        -16.0060    32.6550    13.3500 O.co2        1 ATP301  -1.0000
     8 O3B        -18.1340    31.7340    14.4720 O.3          1 ATP301   0.0000
     9 PA         -18.7430    34.5340    12.4110 P.3          1 ATP301   0.0000
    10 O1A        -18.2100    35.9110    12.0530 O.co2        1 ATP301   0.0000
    11 O2A        -18.4600    33.4280    11.4400 O.co2        1 ATP301  -1.0000
    12 O3A        -18.1580    34.1440    13.8790 O.3          1 ATP301   0.0000
    13 O5'        -20.3480    34.6440    12.5650 O.3          1 ATP301   0.0000
    14 C5'        -20.9620    35.8340    13.0740 C.3          1 ATP301   0.0000
    15 C4'        -20.8550    35.4930    14.5080 C.3          1 ATP301   0.0000
    16 O4'        -21.4620    36.3590    15.4430 O.3          1 ATP301   0.0000
    17 C3'        -21.4760    34.1420    14.7450 C.3          1 ATP301   0.0000
    18 O3'        -20.6760    33.0900    14.2220 O.3          1 ATP301   0.0000
    19 C2'        -21.5150    34.1280    16.2610 C.3          1 ATP301   0.0000
    20 O2'        -20.5110    33.2360    16.8050 O.3          1 ATP301   0.0000
    21 C1'        -21.2350    35.5940    16.6510 C.3          1 ATP301   0.0000
    22 N9         -21.9970    36.1360    17.8170 N.pl3        1 ATP301   0.0000
    23 C8         -21.5050    37.1450    18.5380 C.2          1 ATP301   0.0000
    24 N7         -22.3680    37.4590    19.5350 N.2          1 ATP301   0.0000
    25 C5         -23.4430    36.6370    19.4740 C.ar         1 ATP301   0.0000
    26 C6         -24.7110    36.4460    20.2430 C.ar         1 ATP301   0.0000
    27 N6         -24.9980    37.2280    21.3060 N.pl3        1 ATP301   0.0000
    28 N1         -25.5750    35.4790    19.8590 N.ar         1 ATP301   0.0000
    29 C2         -25.2850    34.7020    18.7960 C.ar         1 ATP301   0.0000
    30 N3         -24.1520    34.8260    18.0640 N.ar         1 ATP301   0.0000
    31 C4         -23.1890    35.7510    18.3350 C.ar         1 ATP301   0.0000
    32 H5'1       -21.9108    35.9332    12.7742 H            1 ATP301   0.0000
    33 H5'2       -20.4498    36.6598    12.8379 H            1 ATP301   0.0000
    34 H4'        -19.8835    35.4281    14.7360 H            1 ATP301   0.0000
    35 H3'        -22.4008    34.1057    14.3664 H            1 ATP301   0.0000
    36 H5         -19.8551    33.4740    13.7994 H            1 ATP301   0.0000
    37 H2'        -22.4235    33.8561    16.5783 H            1 ATP301   0.0000
    38 H7         -19.9994    32.8139    16.0566 H            1 ATP301   0.0000
    39 H1'        -20.2620    35.6642    16.8710 H            1 ATP301   0.0000
    40 H9         -20.6313    37.6009    18.3684 H            1 ATP301   0.0000
    41 H10        -25.8493    37.0907    21.8124 H            1 ATP301   0.0000
    42 H11        -24.3592    37.9444    21.5867 H            1 ATP301   0.0000
    43 H12        -25.9423    33.9955    18.5336 H            1 ATP301   0.0000
@<TRIPOS>BOND
     1    1    2      ar
     2    1    3      ar
     3    1    4      ar
     4    1    8       1
     5    5    6      ar
     6    5    7      ar
     7    5    8       1
     8    5   12       1
     9    9   10      ar
    10    9   11      ar
    11    9   12       1
    12    9   13       1
    13   13   14       1
    14   14   15       1
    15   15   16       1
    16   15   17       1
    17   16   21       1
    18   17   18       1
    19   17   19       1
    20   19   20       1
    21   19   21       1
    22   21   22       1
    23   22   23       1
    24   22   31       1
    25   23   24       2
    26   24   25       1
    27   25   26      ar
    28   25   31      ar
    29   26   27       1
    30   26   28      ar
    31   28   29      ar
    32   29   30      ar
    33   30   31      ar
    34   29   43       1
    35   27   42       1
    36   27   41       1
    37   23   40       1
    38   14   32       1
    39   14   33       1
    40   15   34       1
    41   17   35       1
    42   18   36       1
    43   19   37       1
    44   20   38       1
    45   21   39       1
@<TRIPOS>SUBSTRUCTURE
     1 ATP301      1 GROUP             4 J     ATP     0 **** ATP J 301
