@<TRIPOS>MOLECULE
3tjl_FMN_1_ligand
   50    52     1     0     0
SMALL
NO_CHARGES


@<TRIPOS>ATOM
     1 N1          33.3180   -24.6660     8.2750 N.2          1 FMN408   0.0000
     2 C2          34.6750   -24.5480     8.0610 C.2          1 FMN408   0.0000
     3 O2          35.4170   -24.1350     8.9600 O.2          1 FMN408   0.0000
     4 N3          35.2090   -24.8480     6.8220 N.pl3        1 FMN408   0.0000
     5 C4          34.4100   -25.3140     5.7940 C.2          1 FMN408   0.0000
     6 O4          34.9060   -25.5350     4.6640 O.2          1 FMN408   0.0000
     7 C4A         33.0380   -25.4370     6.0090 C.2          1 FMN408   0.0000
     8 N5          32.2090   -25.9140     4.9980 N.2          1 FMN408   0.0000
     9 C5A         30.8480   -25.9470     5.2210 C.ar         1 FMN408   0.0000
    10 C6          30.0180   -26.3770     4.1970 C.ar         1 FMN408   0.0000
    11 C7          28.6460   -26.4120     4.3910 C.ar         1 FMN408   0.0000
    12 C7M         27.7540   -26.8510     3.2630 C.3          1 FMN408   0.0000
    13 C8          28.1010   -26.0710     5.6310 C.ar         1 FMN408   0.0000
    14 C8M         26.6040   -26.1200     5.8610 C.3          1 FMN408   0.0000
    15 C9          28.9320   -25.6390     6.6670 C.ar         1 FMN408   0.0000
    16 C9A         30.3100   -25.5730     6.4630 C.ar         1 FMN408   0.0000
    17 N10         31.1510   -25.1580     7.4830 N.pl3        1 FMN408   0.0000
    18 C10         32.5090   -25.0750     7.2540 C.2          1 FMN408   0.0000
    19 C1'         30.5730   -24.6650     8.7760 C.3          1 FMN408   0.0000
    20 C2'         30.1500   -23.1920     8.4470 C.3          1 FMN408   0.0000
    21 O2'         31.2340   -22.2810     8.1480 O.3          1 FMN408   0.0000
    22 C3'         29.3570   -22.5330     9.5820 C.3          1 FMN408   0.0000
    23 O3'         30.1620   -22.3960    10.7540 O.3          1 FMN408   0.0000
    24 C4'         28.0790   -23.2860     9.9760 C.3          1 FMN408   0.0000
    25 O4'         27.3520   -23.6580     8.8050 O.3          1 FMN408   0.0000
    26 C5'         27.1570   -22.4930    10.9070 C.3          1 FMN408   0.0000
    27 O5'         26.8140   -21.2230    10.3340 O.3          1 FMN408   0.0000
    28 P           25.3800   -20.9640     9.6390 P.3          1 FMN408   0.0000
    29 O1P         24.3270   -21.3100    10.6790 O.co2        1 FMN408   0.0000
    30 O2P         25.2990   -21.8920     8.4420 O.co2        1 FMN408  -1.0000
    31 O3P         25.3080   -19.4860     9.2550 O.co2        1 FMN408  -1.0000
    32 H1          36.1893   -24.7261     6.6664 H            1 FMN408   0.0000
    33 H2          30.4080   -26.6610     3.3211 H            1 FMN408   0.0000
    34 H7M1        26.8000   -26.8211     3.5614 H            1 FMN408   0.0000
    35 H7M2        27.8784   -26.2388     2.4821 H            1 FMN408   0.0000
    36 H7M3        27.9904   -27.7851     2.9953 H            1 FMN408   0.0000
    37 H8M1        26.4020   -25.8446     6.8009 H            1 FMN408   0.0000
    38 H8M2        26.1486   -25.4964     5.2257 H            1 FMN408   0.0000
    39 H8M3        26.2736   -27.0514     5.7083 H            1 FMN408   0.0000
    40 H9          28.5412   -25.3785     7.5499 H            1 FMN408   0.0000
    41 H1'1        31.2572   -24.6864     9.5050 H            1 FMN408   0.0000
    42 H1'2        29.7811   -25.2128     9.0459 H            1 FMN408   0.0000
    43 H2'         29.5546   -23.2233     7.6442 H            1 FMN408   0.0000
    44 H13         31.7381   -22.6130     7.3507 H            1 FMN408   0.0000
    45 H3'         29.0935   -21.6165     9.2811 H            1 FMN408   0.0000
    46 H15         30.4662   -23.2992    11.0569 H            1 FMN408   0.0000
    47 H4'         28.3489   -24.1240    10.4502 H            1 FMN408   0.0000
    48 H17         26.7115   -22.9286     8.5646 H            1 FMN408   0.0000
    49 H5'1        27.6235   -22.3429    11.7787 H            1 FMN408   0.0000
    50 H5'2        26.3202   -23.0178    11.0629 H            1 FMN408   0.0000
@<TRIPOS>BOND
     1    1    2       1
     2    1   18       2
     3    2    3       2
     4    2    4       1
     5    4    5       1
     6    5    6       2
     7    5    7       1
     8    7    8       2
     9    7   18       1
    10    8    9       1
    11    9   10      ar
    12    9   16      ar
    13   10   11      ar
    14   11   12       1
    15   11   13      ar
    16   13   14       1
    17   13   15      ar
    18   15   16      ar
    19   16   17       1
    20   17   18       1
    21   17   19       1
    22   19   20       1
    23   20   21       1
    24   20   22       1
    25   22   23       1
    26   22   24       1
    27   24   25       1
    28   24   26       1
    29   26   27       1
    30   27   28       1
    31   28   29      ar
    32   28   30      ar
    33   28   31      ar
    34    4   32       1
    35   10   33       1
    36   12   34       1
    37   12   35       1
    38   12   36       1
    39   14   37       1
    40   14   38       1
    41   14   39       1
    42   15   40       1
    43   19   41       1
    44   19   42       1
    45   20   43       1
    46   21   44       1
    47   22   45       1
    48   23   46       1
    49   24   47       1
    50   25   48       1
    51   26   49       1
    52   26   50       1
@<TRIPOS>SUBSTRUCTURE
     1 FMN408      1 GROUP             4 A     FMN     0 **** FMN A 408
