@<TRIPOS>MOLECULE
2yr4_FAD_1_ligand
   84    89     1     0     0
SMALL
NO_CHARGES


@<TRIPOS>ATOM
     1 PA          49.4040    36.8950    54.8700 P.3          1 FAD801   0.0000
     2 O1A         48.0490    37.3360    55.3490 O.co2        1 FAD801   0.0000
     3 O2A         49.5150    36.3620    53.4710 O.co2        1 FAD801  -1.0000
     4 O5B         50.4880    38.0780    55.0250 O.3          1 FAD801   0.0000
     5 C5B         51.7490    38.0790    54.3820 C.3          1 FAD801   0.0000
     6 C4B         52.1430    39.5480    54.2310 C.3          1 FAD801   0.0000
     7 O4B         53.4740    39.5870    53.7970 O.3          1 FAD801   0.0000
     8 C3B         51.2830    40.3010    53.2160 C.3          1 FAD801   0.0000
     9 O3B         50.7810    41.5260    53.8100 O.3          1 FAD801   0.0000
    10 C2B         52.1910    40.5130    52.0410 C.3          1 FAD801   0.0000
    11 O2B         51.9730    41.7230    51.2980 O.3          1 FAD801   0.0000
    12 C1B         53.5750    40.4910    52.7110 C.3          1 FAD801   0.0000
    13 N9A         54.6520    40.1090    51.8240 N.pl3        1 FAD801   0.0000
    14 C8A         54.6770    38.9820    51.0070 C.2          1 FAD801   0.0000
    15 N7A         55.8480    38.9310    50.3570 N.2          1 FAD801   0.0000
    16 C5A         56.6040    39.9970    50.7490 C.ar         1 FAD801   0.0000
    17 C6A         57.9080    40.3320    50.3540 C.ar         1 FAD801   0.0000
    18 N6A         58.6360    39.5720    49.5150 N.pl3        1 FAD801   0.0000
    19 N1A         58.3970    41.5360    50.8770 N.ar         1 FAD801   0.0000
    20 C2A         57.7350    42.0320    51.9110 C.ar         1 FAD801   0.0000
    21 N3A         56.3850    41.8950    52.2020 N.ar         1 FAD801   0.0000
    22 C4A         55.8680    40.7290    51.6850 C.ar         1 FAD801   0.0000
    23 N1          40.8160    33.1730    58.9330 N.2          1 FAD801   0.0000
    24 C2          39.9930    32.9840    59.9770 C.2          1 FAD801   0.0000
    25 O2          40.3500    33.0620    61.1480 O.2          1 FAD801   0.0000
    26 N3          38.7250    32.6570    59.7140 N.pl3        1 FAD801   0.0000
    27 C4          38.3390    32.4200    58.4170 C.2          1 FAD801   0.0000
    28 O4          37.2030    31.9250    58.2560 O.2          1 FAD801   0.0000
    29 C4X         39.1330    32.7370    57.3310 C.2          1 FAD801   0.0000
    30 N5          38.6890    32.6640    56.0090 N.2          1 FAD801   0.0000
    31 C5X         39.5700    32.9010    54.9550 C.ar         1 FAD801   0.0000
    32 C6          39.1950    32.7800    53.6120 C.ar         1 FAD801   0.0000
    33 C7          40.0560    33.0970    52.5630 C.ar         1 FAD801   0.0000
    34 C7M         39.5860    33.4180    51.1670 C.3          1 FAD801   0.0000
    35 C8          41.3390    33.4970    52.8510 C.ar         1 FAD801   0.0000
    36 C8M         42.4390    33.1840    51.8090 C.3          1 FAD801   0.0000
    37 C9          41.6860    33.6000    54.1960 C.ar         1 FAD801   0.0000
    38 C9A         40.8380    33.2710    55.2590 C.ar         1 FAD801   0.0000
    39 N10         41.2440    33.2990    56.6160 N.pl3        1 FAD801   0.0000
    40 C10         40.3910    33.1130    57.6220 C.2          1 FAD801   0.0000
    41 C1'         42.6630    32.8090    56.9160 C.3          1 FAD801   0.0000
    42 C2'         43.4770    34.0170    57.2310 C.3          1 FAD801   0.0000
    43 O2'         43.1230    34.9650    56.2450 O.3          1 FAD801   0.0000
    44 C3'         45.0020    33.7380    57.2400 C.3          1 FAD801   0.0000
    45 O3'         45.3000    32.5990    58.0640 O.3          1 FAD801   0.0000
    46 C4'         45.9180    34.8680    57.6280 C.3          1 FAD801   0.0000
    47 O4'         45.3760    36.1320    57.2550 O.3          1 FAD801   0.0000
    48 C5'         47.2560    34.6280    56.9830 C.3          1 FAD801   0.0000
    49 O5'         48.2240    35.4410    57.6170 O.3          1 FAD801   0.0000
    50 P           49.7900    35.2820    57.3250 P.3          1 FAD801   0.0000
    51 O1P         50.6020    36.2210    58.1560 O.co2        1 FAD801   0.0000
    52 O2P         50.0940    33.8120    57.3500 O.co2        1 FAD801  -1.0000
    53 O3P         49.9310    35.6590    55.7660 O.3          1 FAD801   0.0000
    54 H5B1        51.6818    37.6431    53.4845 H            1 FAD801   0.0000
    55 H5B2        52.4233    37.5937    54.9386 H            1 FAD801   0.0000
    56 H4B         52.0737    40.0001    55.1203 H            1 FAD801   0.0000
    57 H3B         50.5129    39.7253    52.9411 H            1 FAD801   0.0000
    58 H5          51.5503    42.1031    54.0843 H            1 FAD801   0.0000
    59 H2B         52.1142    39.7309    51.4227 H            1 FAD801   0.0000
    60 H7          52.1029    42.5114    51.8993 H            1 FAD801   0.0000
    61 H1B         53.7684    41.4030    53.0726 H            1 FAD801   0.0000
    62 H8A         53.9371    38.3150    50.9189 H            1 FAD801   0.0000
    63 H6A1        59.5620    39.8525    49.2623 H            1 FAD801   0.0000
    64 H6A2        58.2509    38.7268    49.1443 H            1 FAD801   0.0000
    65 H2A         58.2725    42.5700    52.5603 H            1 FAD801   0.0000
    66 H13         38.0600    32.5851    60.4574 H            1 FAD801   0.0000
    67 H14         38.2745    32.4538    53.3970 H            1 FAD801   0.0000
    68 H7M1        40.3761    33.6132    50.5859 H            1 FAD801   0.0000
    69 H7M2        39.0844    32.6364    50.7962 H            1 FAD801   0.0000
    70 H7M3        38.9857    34.2174    51.1929 H            1 FAD801   0.0000
    71 H8M1        43.3185    33.5261    52.1398 H            1 FAD801   0.0000
    72 H8M2        42.4963    32.1951    51.6716 H            1 FAD801   0.0000
    73 H8M3        42.2132    33.6285    50.9421 H            1 FAD801   0.0000
    74 H21         42.6033    33.9315    54.4168 H            1 FAD801   0.0000
    75 H1'1        43.0404    32.3377    56.1188 H            1 FAD801   0.0000
    76 H1'2        42.6541    32.1861    57.6982 H            1 FAD801   0.0000
    77 H2'         43.2059    34.3657    58.1282 H            1 FAD801   0.0000
    78 H25         42.1430    35.1555    56.3023 H            1 FAD801   0.0000
    79 H3'         45.2483    33.4827    56.3050 H            1 FAD801   0.0000
    80 H27         45.7417    31.8933    57.5101 H            1 FAD801   0.0000
    81 H4'         46.0369    34.8539    58.6208 H            1 FAD801   0.0000
    82 H29         44.4911    35.9968    56.8092 H            1 FAD801   0.0000
    83 H5'1        47.2067    34.8606    56.0117 H            1 FAD801   0.0000
    84 H5'2        47.5088    33.6656    57.0829 H            1 FAD801   0.0000
@<TRIPOS>BOND
     1    1    2      ar
     2    1    3      ar
     3    1    4       1
     4    1   53       1
     5    4    5       1
     6    5    6       1
     7    6    7       1
     8    6    8       1
     9    7   12       1
    10    8    9       1
    11    8   10       1
    12   10   11       1
    13   10   12       1
    14   12   13       1
    15   13   14       1
    16   13   22       1
    17   14   15       2
    18   15   16       1
    19   16   17      ar
    20   16   22      ar
    21   17   18       1
    22   17   19      ar
    23   19   20      ar
    24   20   21      ar
    25   21   22      ar
    26   23   24       1
    27   23   40       2
    28   24   25       2
    29   24   26       1
    30   26   27       1
    31   27   28       2
    32   27   29       1
    33   29   30       2
    34   29   40       1
    35   30   31       1
    36   31   32      ar
    37   31   38      ar
    38   32   33      ar
    39   33   34       1
    40   33   35      ar
    41   35   36       1
    42   35   37      ar
    43   37   38      ar
    44   38   39       1
    45   39   40       1
    46   39   41       1
    47   41   42       1
    48   42   43       1
    49   42   44       1
    50   44   45       1
    51   44   46       1
    52   46   47       1
    53   46   48       1
    54   48   49       1
    55   49   50       1
    56   50   51      ar
    57   50   52      ar
    58   50   53       1
    59   48   84       1
    60    5   54       1
    61    5   55       1
    62    6   56       1
    63    8   57       1
    64    9   58       1
    65   10   59       1
    66   11   60       1
    67   12   61       1
    68   14   62       1
    69   18   63       1
    70   18   64       1
    71   20   65       1
    72   26   66       1
    73   32   67       1
    74   34   68       1
    75   34   69       1
    76   34   70       1
    77   36   71       1
    78   36   72       1
    79   36   73       1
    80   37   74       1
    81   41   75       1
    82   41   76       1
    83   42   77       1
    84   43   78       1
    85   44   79       1
    86   45   80       1
    87   46   81       1
    88   47   82       1
    89   48   83       1
@<TRIPOS>SUBSTRUCTURE
     1 FAD801      1 GROUP             4 A     FAD     0 **** FAD A 801
