@<TRIPOS>MOLECULE
2zyn_BCD_1_ligand
  147   154     1     0     0
SMALL
NO_CHARGES


@<TRIPOS>ATOM
     1 C11        -20.8460     7.2990   -31.3000 C.3          1 BCD901   0.0000
     2 C21        -22.3320     7.4520   -30.9930 C.3          1 BCD901   0.0000
     3 O21        -22.6340     8.7610   -30.5260 O.3          1 BCD901   0.0000
     4 C31        -22.7700     6.4590   -29.9360 C.3          1 BCD901   0.0000
     5 O31        -24.1630     6.5750   -29.6640 O.3          1 BCD901   0.0000
     6 C41        -22.4330     5.0050   -30.3390 C.3          1 BCD901   0.0000
     7 O41        -22.8040     4.1600   -29.2790 O.3          1 BCD901   0.0000
     8 C51        -20.9270     4.8530   -30.6460 C.3          1 BCD901   0.0000
     9 O51        -20.3930     5.9170   -31.5110 O.3          1 BCD901   0.0000
    10 C61        -20.6180     3.5210   -31.3160 C.3          1 BCD901   0.0000
    11 O61        -19.5740     2.9510   -30.5670 O.3          1 BCD901   0.0000
    12 C12        -23.9510     3.3390   -29.5810 C.3          1 BCD901   0.0000
    13 C22        -24.8510     3.1700   -28.3750 C.3          1 BCD901   0.0000
    14 O22        -25.3580     4.4170   -27.8660 O.3          1 BCD901   0.0000
    15 C32        -24.1510     2.3980   -27.2400 C.3          1 BCD901   0.0000
    16 O32        -25.0750     2.1870   -26.1700 O.3          1 BCD901   0.0000
    17 C42        -23.5370     1.0440   -27.6830 C.3          1 BCD901   0.0000
    18 O42        -22.5830     0.7240   -26.6770 O.3          1 BCD901   0.0000
    19 C52        -22.7970     1.1670   -29.0970 C.3          1 BCD901   0.0000
    20 O52        -23.4190     2.1050   -30.0560 O.3          1 BCD901   0.0000
    21 C62        -22.6710    -0.1630   -29.8530 C.3          1 BCD901   0.0000
    22 O62        -23.9600    -0.7380   -29.9930 O.3          1 BCD901   0.0000
    23 C13        -22.3660    -0.7270   -26.4740 C.3          1 BCD901   0.0000
    24 C23        -22.2440    -1.0100   -24.9710 C.3          1 BCD901   0.0000
    25 O23        -23.4290    -0.6950   -24.2720 O.3          1 BCD901   0.0000
    26 C33        -21.0650    -0.2320   -24.4260 C.3          1 BCD901   0.0000
    27 O33        -20.8900    -0.4460   -23.0200 O.3          1 BCD901   0.0000
    28 C43        -19.7340    -0.5670   -25.1770 C.3          1 BCD901   0.0000
    29 O43        -18.7050     0.2700   -24.6790 O.3          1 BCD901   0.0000
    30 C53        -19.9190    -0.3940   -26.7150 C.3          1 BCD901   0.0000
    31 O53        -21.1480    -1.0470   -27.1420 O.3          1 BCD901   0.0000
    32 C63        -18.7870    -0.9960   -27.5470 C.3          1 BCD901   0.0000
    33 O63        -19.0540    -0.8190   -28.9190 O.3          1 BCD901   0.0000
    34 C14        -17.4590    -0.3600   -24.4260 C.3          1 BCD901   0.0000
    35 C24        -17.1020     0.0070   -22.9680 C.3          1 BCD901   0.0000
    36 O24        -18.2460    -0.1160   -22.1040 O.3          1 BCD901   0.0000
    37 C34        -16.4990     1.4630   -22.8270 C.3          1 BCD901   0.0000
    38 O34        -15.7390     1.5650   -21.6340 O.3          1 BCD901   0.0000
    39 C44        -15.5390     1.8560   -23.9720 C.3          1 BCD901   0.0000
    40 O44        -15.2360     3.2480   -23.8950 O.3          1 BCD901   0.0000
    41 C54        -16.1590     1.5530   -25.3550 C.3          1 BCD901   0.0000
    42 O54        -16.5400     0.1670   -25.4570 O.3          1 BCD901   0.0000
    43 C64        -15.2080     1.8930   -26.5120 C.3          1 BCD901   0.0000
    44 O64        -15.9660     2.0310   -27.6870 O.3          1 BCD901   0.0000
    45 C15        -13.9000     3.6020   -23.5390 C.3          1 BCD901   0.0000
    46 C25        -13.9660     4.6380   -22.4280 C.3          1 BCD901   0.0000
    47 O25        -14.6060     4.1320   -21.2690 O.3          1 BCD901   0.0000
    48 C35        -14.6630     5.9110   -22.9190 C.3          1 BCD901   0.0000
    49 O35        -14.7570     6.9230   -21.9590 O.3          1 BCD901   0.0000
    50 C45        -14.0210     6.4630   -24.2380 C.3          1 BCD901   0.0000
    51 O45        -14.8940     7.4340   -24.7500 O.3          1 BCD901   0.0000
    52 C55        -13.8780     5.3450   -25.2910 C.3          1 BCD901   0.0000
    53 O55        -13.2740     4.1560   -24.7100 O.3          1 BCD901   0.0000
    54 C65        -13.0450     5.7430   -26.4890 C.3          1 BCD901   0.0000
    55 O65        -13.2750     4.8420   -27.5500 O.3          1 BCD901   0.0000
    56 C16        -14.3790     8.7850   -24.6410 C.3          1 BCD901   0.0000
    57 C26        -15.5430     9.6930   -24.3310 C.3          1 BCD901   0.0000
    58 O26        -16.1930     9.3500   -23.1040 O.3          1 BCD901   0.0000
    59 C36        -16.5450     9.7040   -25.4820 C.3          1 BCD901   0.0000
    60 O36        -17.6500    10.5330   -25.2730 O.3          1 BCD901   0.0000
    61 C46        -15.8980    10.0180   -26.8790 C.3          1 BCD901   0.0000
    62 O46        -16.8910     9.6070   -27.8200 O.3          1 BCD901   0.0000
    63 C56        -14.6260     9.1420   -27.0800 C.3          1 BCD901   0.0000
    64 O56        -13.7730     9.1320   -25.9050 O.3          1 BCD901   0.0000
    65 C66        -13.7230     9.5370   -28.2590 C.3          1 BCD901   0.0000
    66 O66        -13.3520    10.9250   -28.0870 O.3          1 BCD901   0.0000
    67 C17        -17.0130    10.3500   -29.0770 C.3          1 BCD901   0.0000
    68 C27        -18.4390    10.8920   -29.1160 C.3          1 BCD901   0.0000
    69 O27        -18.6310    11.7890   -28.0510 O.3          1 BCD901   0.0000
    70 C37        -19.4460     9.7160   -29.1000 C.3          1 BCD901   0.0000
    71 O37        -20.7980    10.1550   -29.1400 O.3          1 BCD901   0.0000
    72 C47        -19.1910     8.7540   -30.2690 C.3          1 BCD901   0.0000
    73 O47        -20.1240     7.6950   -30.1320 O.3          1 BCD901   0.0000
    74 C57        -17.7010     8.2790   -30.2100 C.3          1 BCD901   0.0000
    75 O57        -16.7510     9.3970   -30.1370 O.3          1 BCD901   0.0000
    76 C67        -17.3320     7.3250   -31.3880 C.3          1 BCD901   0.0000
    77 O67        -17.2240     8.0680   -32.6250 O.3          1 BCD901   0.0000
    78 H1         -20.5903     7.8721   -32.0786 H            1 BCD901   0.0000
    79 H2         -22.8523     7.2812   -31.8297 H            1 BCD901   0.0000
    80 H3         -21.8410     9.1344   -30.0445 H            1 BCD901   0.0000
    81 H4         -22.2736     6.6676   -29.0934 H            1 BCD901   0.0000
    82 H5         -24.4226     5.9091   -28.9646 H            1 BCD901   0.0000
    83 H6         -22.9597     4.7601   -31.1530 H            1 BCD901   0.0000
    84 H7         -20.4311     4.8836   -29.7782 H            1 BCD901   0.0000
    85 H8         -20.3294     3.6656   -32.2625 H            1 BCD901   0.0000
    86 H9         -21.4228     2.9277   -31.2999 H            1 BCD901   0.0000
    87 H10        -19.9577     2.3898   -29.8336 H            1 BCD901   0.0000
    88 H11        -24.4732     3.7707   -30.3165 H            1 BCD901   0.0000
    89 H12        -25.6377     2.6249   -28.6647 H            1 BCD901   0.0000
    90 H13        -26.2239     4.6336   -28.3168 H            1 BCD901   0.0000
    91 H14        -23.4084     2.9712   -26.8936 H            1 BCD901   0.0000
    92 H15        -25.0243     2.9535   -25.5298 H            1 BCD901   0.0000
    93 H16        -24.2458     0.3398   -27.7238 H            1 BCD901   0.0000
    94 H17        -21.8697     1.4962   -28.9190 H            1 BCD901   0.0000
    95 H18        -22.0800    -0.7856   -29.3401 H            1 BCD901   0.0000
    96 H19        -22.2771     0.0013   -30.7573 H            1 BCD901   0.0000
    97 H20        -24.6395    -0.1407   -29.5669 H            1 BCD901   0.0000
    98 H21        -23.1238    -1.2493   -26.8651 H            1 BCD901   0.0000
    99 H22        -22.0587    -1.9852   -24.8499 H            1 BCD901   0.0000
   100 H23        -24.1838    -1.2437   -24.6313 H            1 BCD901   0.0000
   101 H24        -21.2540     0.7403   -24.5633 H            1 BCD901   0.0000
   102 H25        -19.9211    -0.3607   -22.7879 H            1 BCD901   0.0000
   103 H26        -19.4914    -1.5187   -24.9890 H            1 BCD901   0.0000
   104 H27        -19.9855     0.5820   -26.9224 H            1 BCD901   0.0000
   105 H28        -18.7119    -1.9729   -27.3471 H            1 BCD901   0.0000
   106 H29        -17.9271    -0.5413   -27.3152 H            1 BCD901   0.0000
   107 H30        -19.9244    -0.3394   -29.0300 H            1 BCD901   0.0000
   108 H31        -17.5492    -1.3515   -24.5194 H            1 BCD901   0.0000
   109 H32        -16.4098    -0.6415   -22.6513 H            1 BCD901   0.0000
   110 H33        -18.0527    -0.7874   -21.3886 H            1 BCD901   0.0000
   111 H34        -17.2493     2.1231   -22.7914 H            1 BCD901   0.0000
   112 H35        -15.3634     2.4885   -21.5560 H            1 BCD901   0.0000
   113 H36        -14.6910     1.3346   -23.8764 H            1 BCD901   0.0000
   114 H37        -16.9831     2.1105   -25.4555 H            1 BCD901   0.0000
   115 H38        -14.5396     1.1580   -26.6262 H            1 BCD901   0.0000
   116 H39        -14.7310     2.7497   -26.3158 H            1 BCD901   0.0000
   117 H40        -16.8819     2.3595   -27.4562 H            1 BCD901   0.0000
   118 H41        -13.3992     2.7939   -23.2288 H            1 BCD901   0.0000
   119 H42        -13.0281     4.8795   -22.1788 H            1 BCD901   0.0000
   120 H43        -14.2304     4.5806   -20.4581 H            1 BCD901   0.0000
   121 H44        -15.6008     5.6500   -23.1481 H            1 BCD901   0.0000
   122 H45        -13.9814     6.8597   -21.3309 H            1 BCD901   0.0000
   123 H46        -13.1285     6.8698   -24.0433 H            1 BCD901   0.0000
   124 H47        -14.7928     5.1031   -25.6144 H            1 BCD901   0.0000
   125 H48        -12.0764     5.7241   -26.2412 H            1 BCD901   0.0000
   126 H49        -13.2974     6.6668   -26.7770 H            1 BCD901   0.0000
   127 H50        -13.0223     3.9179   -27.2633 H            1 BCD901   0.0000
   128 H51        -13.6996     8.8355   -23.9090 H            1 BCD901   0.0000
   129 H52        -15.1844    10.6214   -24.2337 H            1 BCD901   0.0000
   130 H53        -15.7345     8.5622   -22.6928 H            1 BCD901   0.0000
   131 H54        -16.9046     8.7731   -25.5457 H            1 BCD901   0.0000
   132 H55        -18.3775    10.0124   -24.8262 H            1 BCD901   0.0000
   133 H56        -15.6883    10.9913   -26.9726 H            1 BCD901   0.0000
   134 H57        -14.9307     8.2026   -27.2373 H            1 BCD901   0.0000
   135 H58        -14.2181     9.4215   -29.1201 H            1 BCD901   0.0000
   136 H59        -12.9033     8.9643   -28.2663 H            1 BCD901   0.0000
   137 H60        -12.4503    11.0814   -28.4901 H            1 BCD901   0.0000
   138 H61        -16.3517    11.0995   -29.1074 H            1 BCD901   0.0000
   139 H62        -18.5589    11.3940   -29.9725 H            1 BCD901   0.0000
   140 H63        -18.4792    11.3144   -27.1840 H            1 BCD901   0.0000
   141 H64        -19.3125     9.2082   -28.2489 H            1 BCD901   0.0000
   142 H65        -20.8232    11.1542   -29.1709 H            1 BCD901   0.0000
   143 H66        -19.3538     9.2305   -31.1330 H            1 BCD901   0.0000
   144 H67        -17.5966     7.7529   -29.3660 H            1 BCD901   0.0000
   145 H68        -18.0434     6.6287   -31.4831 H            1 BCD901   0.0000
   146 H69        -16.4568     6.8828   -31.1919 H            1 BCD901   0.0000
   147 H70        -16.9874     7.4435   -33.3693 H            1 BCD901   0.0000
@<TRIPOS>BOND
     1    1    2       1
     2    1    9       1
     3    1   73       1
     4    2    3       1
     5    2    4       1
     6    4    5       1
     7    4    6       1
     8    6    7       1
     9    6    8       1
    10    7   12       1
    11    8    9       1
    12    8   10       1
    13   10   11       1
    14   12   13       1
    15   12   20       1
    16   13   14       1
    17   13   15       1
    18   15   16       1
    19   15   17       1
    20   17   18       1
    21   17   19       1
    22   18   23       1
    23   19   20       1
    24   19   21       1
    25   21   22       1
    26   23   24       1
    27   23   31       1
    28   24   25       1
    29   24   26       1
    30   26   27       1
    31   26   28       1
    32   28   29       1
    33   28   30       1
    34   29   34       1
    35   30   31       1
    36   30   32       1
    37   32   33       1
    38   34   35       1
    39   34   42       1
    40   35   36       1
    41   35   37       1
    42   37   38       1
    43   37   39       1
    44   39   40       1
    45   39   41       1
    46   40   45       1
    47   41   42       1
    48   41   43       1
    49   43   44       1
    50   45   46       1
    51   45   53       1
    52   46   47       1
    53   46   48       1
    54   48   49       1
    55   48   50       1
    56   50   51       1
    57   50   52       1
    58   51   56       1
    59   52   53       1
    60   52   54       1
    61   54   55       1
    62   56   57       1
    63   56   64       1
    64   57   58       1
    65   57   59       1
    66   59   60       1
    67   59   61       1
    68   61   62       1
    69   61   63       1
    70   62   67       1
    71   63   64       1
    72   63   65       1
    73   65   66       1
    74   67   68       1
    75   67   75       1
    76   68   69       1
    77   68   70       1
    78   70   71       1
    79   70   72       1
    80   72   73       1
    81   72   74       1
    82   74   75       1
    83   74   76       1
    84   76   77       1
    85    1   78       1
    86    2   79       1
    87    3   80       1
    88    4   81       1
    89    5   82       1
    90    6   83       1
    91    8   84       1
    92   10   85       1
    93   10   86       1
    94   11   87       1
    95   12   88       1
    96   13   89       1
    97   14   90       1
    98   15   91       1
    99   16   92       1
   100   17   93       1
   101   19   94       1
   102   21   95       1
   103   21   96       1
   104   22   97       1
   105   23   98       1
   106   24   99       1
   107   25  100       1
   108   26  101       1
   109   27  102       1
   110   28  103       1
   111   30  104       1
   112   32  105       1
   113   32  106       1
   114   33  107       1
   115   34  108       1
   116   35  109       1
   117   36  110       1
   118   37  111       1
   119   38  112       1
   120   39  113       1
   121   41  114       1
   122   43  115       1
   123   43  116       1
   124   44  117       1
   125   45  118       1
   126   46  119       1
   127   47  120       1
   128   48  121       1
   129   49  122       1
   130   50  123       1
   131   52  124       1
   132   54  125       1
   133   54  126       1
   134   55  127       1
   135   56  128       1
   136   57  129       1
   137   58  130       1
   138   59  131       1
   139   60  132       1
   140   61  133       1
   141   63  134       1
   142   65  135       1
   143   65  136       1
   144   66  137       1
   145   67  138       1
   146   68  139       1
   147   69  140       1
   148   70  141       1
   149   71  142       1
   150   72  143       1
   151   74  144       1
   152   76  145       1
   153   76  146       1
   154   77  147       1
@<TRIPOS>SUBSTRUCTURE
     1 BCD901      1 GROUP             4 A     BCD     0 **** BCD A 901
