@<TRIPOS>MOLECULE
1gwc_GTX_1_ligand
   54    53     1     0     0
SMALL
NO_CHARGES


@<TRIPOS>ATOM
     1 N1          47.0000    -7.2030    70.5010 N.4          1 GTX1225   1.0000
     2 CA1         47.2500    -8.5590    70.0250 C.3          1 GTX1225   0.0000
     3 C1          48.4810    -8.4660    69.1500 C.2          1 GTX1225   0.0000
     4 O11         49.2740    -9.4050    68.9530 O.co2        1 GTX1225   0.0000
     5 O12         48.7610    -7.3590    68.7110 O.co2        1 GTX1225  -1.0000
     6 CB1         45.9040    -8.8990    69.3970 C.3          1 GTX1225   0.0000
     7 CG1         45.8680   -10.3810    69.0320 C.3          1 GTX1225   0.0000
     8 CD1         44.6470   -10.7480    68.2040 C.2          1 GTX1225   0.0000
     9 OE1         43.5570   -10.4430    68.9700 O.2          1 GTX1225   0.0000
    10 N2          44.5210   -12.1680    68.1690 N.am         1 GTX1225   0.0000
    11 CA2         43.2690   -12.8630    67.9550 C.3          1 GTX1225   0.0000
    12 C2          43.2630   -14.1530    68.6920 C.2          1 GTX1225   0.0000
    13 O2          44.2710   -14.8980    68.7360 O.2          1 GTX1225   0.0000
    14 CB2         43.1310   -13.2860    66.5160 C.3          1 GTX1225   0.0000
    15 SG2         43.2800   -11.8230    65.4910 S.3          1 GTX1225   0.0000
    16 C1S         41.5980   -11.2820    65.6840 C.3          1 GTX1225   0.0000
    17 C2S         41.1750   -10.7930    64.3260 C.3          1 GTX1225   0.0000
    18 C3S         40.4120   -11.9380    63.6480 C.3          1 GTX1225   0.0000
    19 C4S         41.1730   -12.8610    62.6980 C.3          1 GTX1225   0.0000
    20 C5S         40.5050   -14.2420    62.7090 C.3          1 GTX1225   0.0000
    21 C6S         41.5460   -15.3310    62.8580 C.3          1 GTX1225   0.0000
    22 N3          42.1090   -14.4470    69.2370 N.am         1 GTX1225   0.0000
    23 CA3         41.9660   -15.7410    69.9450 C.3          1 GTX1225   0.0000
    24 C3          40.5700   -16.3370    69.8000 C.2          1 GTX1225   0.0000
    25 O31         39.7370   -15.7920    69.0110 O.co2        1 GTX1225   0.0000
    26 O32         40.2560   -17.3460    70.4620 O.co2        1 GTX1225  -1.0000
    27 H1          46.1915    -7.2001    71.0895 H            1 GTX1225   0.0000
    28 H2          47.7915    -6.8808    71.0203 H            1 GTX1225   0.0000
    29 HA1         47.4276    -9.1653    70.8002 H            1 GTX1225   0.0000
    30 HB11        45.7738    -8.3498    68.5715 H            1 GTX1225   0.0000
    31 HB12        45.1727    -8.6991    70.0491 H            1 GTX1225   0.0000
    32 HG11        45.8569   -10.9186    69.8751 H            1 GTX1225   0.0000
    33 HG12        46.6897   -10.6018    68.5066 H            1 GTX1225   0.0000
    34 H8          45.3468   -12.7166    68.3001 H            1 GTX1225   0.0000
    35 HA2         42.4956   -12.2930    68.2324 H            1 GTX1225   0.0000
    36 HB21        42.2377   -13.7118    66.3717 H            1 GTX1225   0.0000
    37 HB22        43.8526   -13.9381    66.2834 H            1 GTX1225   0.0000
    38 H1S1        41.5436   -10.5421    66.3545 H            1 GTX1225   0.0000
    39 H1S2        41.0181   -12.0417    65.9782 H            1 GTX1225   0.0000
    40 H2S1        41.9792   -10.5492    63.7840 H            1 GTX1225   0.0000
    41 H2S2        40.5812    -9.9938    64.4194 H            1 GTX1225   0.0000
    42 H3S1        39.6661   -11.5261    63.1246 H            1 GTX1225   0.0000
    43 H3S2        40.0327   -12.5107    64.3747 H            1 GTX1225   0.0000
    44 H4S1        42.1227   -12.9447    62.9998 H            1 GTX1225   0.0000
    45 H4S2        41.1494   -12.4837    61.7722 H            1 GTX1225   0.0000
    46 H5S1        40.0095   -14.3751    61.8506 H            1 GTX1225   0.0000
    47 H5S2        39.8641   -14.2919    63.4750 H            1 GTX1225   0.0000
    48 H6S1        41.0959   -16.2239    62.8635 H            1 GTX1225   0.0000
    49 H6S2        42.1876   -15.2858    62.0923 H            1 GTX1225   0.0000
    50 H6S3        42.0422   -15.2026    63.7167 H            1 GTX1225   0.0000
    51 H25         41.3397   -13.8110    69.1766 H            1 GTX1225   0.0000
    52 HA31        42.1535   -15.5970    70.9166 H            1 GTX1225   0.0000
    53 HA32        42.6307   -16.3869    69.5694 H            1 GTX1225   0.0000
    54 H28         46.8456    -6.5986    69.7195 H            1 GTX1225   0.0000
@<TRIPOS>BOND
     1    1    2       1
     2    2    3       1
     3    2    6       1
     4    3    4      ar
     5    3    5      ar
     6    6    7       1
     7    7    8       1
     8    8    9       2
     9    8   10      am
    10   10   11       1
    11   11   12       1
    12   11   14       1
    13   12   13       2
    14   12   22      am
    15   14   15       1
    16   15   16       1
    17   16   17       1
    18   17   18       1
    19   18   19       1
    20   19   20       1
    21   20   21       1
    22   22   23       1
    23   23   24       1
    24   24   25      ar
    25   24   26      ar
    26    1   27       1
    27    1   28       1
    28    2   29       1
    29    1   54       1
    30    6   30       1
    31    6   31       1
    32    7   32       1
    33    7   33       1
    34   10   34       1
    35   11   35       1
    36   14   36       1
    37   14   37       1
    38   16   38       1
    39   16   39       1
    40   17   40       1
    41   17   41       1
    42   18   42       1
    43   18   43       1
    44   19   44       1
    45   19   45       1
    46   20   46       1
    47   20   47       1
    48   21   48       1
    49   21   49       1
    50   21   50       1
    51   22   51       1
    52   23   52       1
    53   23   53       1
@<TRIPOS>SUBSTRUCTURE
     1 GTX1225     1 GROUP             4 A     GTX     0 **** GTX A1225
