@<TRIPOS>MOLECULE
2klh_5GP_2_ligand
   36    38     1     0     0
SMALL
NO_CHARGES


@<TRIPOS>ATOM
     1 P           -2.9440     5.1790     9.5490 P.3          1 5GP187   0.0000
     2 O1P         -1.8380     4.2490     9.2070 O.co2        1 5GP187   0.0000
     3 O2P         -4.0330     4.7250    10.4500 O.co2        1 5GP187  -1.0000
     4 O3P         -2.3080     6.5000    10.1700 O.co2        1 5GP187  -1.0000
     5 O5'         -3.6010     5.6850     8.1870 O.3          1 5GP187   0.0000
     6 C5'         -4.0070     7.0400     8.0290 C.3          1 5GP187   0.0000
     7 C4'         -4.3490     7.3130     6.5870 C.3          1 5GP187   0.0000
     8 O4'         -5.6800     6.7870     6.3340 O.3          1 5GP187   0.0000
     9 C3'         -4.3890     8.7900     6.1990 C.3          1 5GP187   0.0000
    10 O3'         -3.8710     9.0250     4.8890 O.3          1 5GP187   0.0000
    11 C2'         -5.8660     9.1470     6.3070 C.3          1 5GP187   0.0000
    12 O2'         -6.2230    10.1290     5.3550 O.3          1 5GP187   0.0000
    13 C1'         -6.5320     7.8300     5.9190 C.3          1 5GP187   0.0000
    14 N9          -7.8350     7.6550     6.5500 N.pl3        1 5GP187   0.0000
    15 C8          -8.0860     7.2540     7.8390 C.2          1 5GP187   0.0000
    16 N7          -9.3580     7.2280     8.1310 N.2          1 5GP187   0.0000
    17 C5          -9.9850     7.6260     6.9580 C.2          1 5GP187   0.0000
    18 C6         -11.3620     7.7920     6.6610 C.2          1 5GP187   0.0000
    19 O6         -12.3380     7.6260     7.4030 O.2          1 5GP187   0.0000
    20 N1         -11.5560     8.2040     5.3460 N.pl3        1 5GP187   0.0000
    21 C2         -10.5550     8.4270     4.4350 C.2          1 5GP187   0.0000
    22 N2         -10.9420     8.8130     3.2140 N.pl3        1 5GP187   0.0000
    23 N3          -9.2690     8.2820     4.6990 N.2          1 5GP187   0.0000
    24 C4          -9.0580     7.8820     5.9690 C.2          1 5GP187   0.0000
    25 H5'1        -3.2619     7.6438     8.3123 H            1 5GP187   0.0000
    26 H5'2        -4.8109     7.2130     8.5981 H            1 5GP187   0.0000
    27 H4'         -3.6930     6.8385     6.0000 H            1 5GP187   0.0000
    28 H3'         -3.8674     9.3238     6.8645 H            1 5GP187   0.0000
    29 H5          -4.0355     8.2218     4.3165 H            1 5GP187   0.0000
    30 H2'         -6.1118     9.4258     7.2354 H            1 5GP187   0.0000
    31 H7          -5.4336    10.7133     5.1667 H            1 5GP187   0.0000
    32 H1'         -6.6386     7.7939     4.9254 H            1 5GP187   0.0000
    33 H9          -7.3669     7.0068     8.4885 H            1 5GP187   0.0000
    34 H10        -12.4976     8.3486     5.0418 H            1 5GP187   0.0000
    35 H11        -10.2587     8.9911     2.5059 H            1 5GP187   0.0000
    36 H12        -11.9146     8.9234     3.0094 H            1 5GP187   0.0000
@<TRIPOS>BOND
     1    1    2      ar
     2    1    3      ar
     3    1    4      ar
     4    1    5       1
     5    5    6       1
     6    6    7       1
     7    7    8       1
     8    7    9       1
     9    8   13       1
    10    9   10       1
    11    9   11       1
    12   11   12       1
    13   11   13       1
    14   13   14       1
    15   14   15       1
    16   14   24       1
    17   15   16       2
    18   16   17       1
    19   17   18       1
    20   17   24       2
    21   18   19       2
    22   18   20       1
    23   20   21       1
    24   21   22       1
    25   21   23       2
    26   23   24       1
    27   22   36       1
    28   22   35       1
    29    6   25       1
    30    6   26       1
    31    7   27       1
    32    9   28       1
    33   10   29       1
    34   11   30       1
    35   12   31       1
    36   13   32       1
    37   15   33       1
    38   20   34       1
@<TRIPOS>SUBSTRUCTURE
     1 5GP187      1 GROUP             4 B     5GP     0 **** 5GP B 187
