@<TRIPOS>MOLECULE
4pzk_SAH_1_ligand
   46    48     1     0     0
SMALL
NO_CHARGES


@<TRIPOS>ATOM
     1 N            4.3860   -16.6230   -19.4370 N.4          1 SAH201   1.0000
     2 CA           3.6560   -16.2910   -18.2210 C.3          1 SAH201   0.0000
     3 CB           3.4390   -14.7880   -18.0940 C.3          1 SAH201   0.0000
     4 CG           4.5660   -13.8910   -18.5990 C.3          1 SAH201   0.0000
     5 SD           4.0850   -12.1450   -18.4380 S.3          1 SAH201   0.0000
     6 C            2.3300   -17.0400   -18.1590 C.2          1 SAH201   0.0000
     7 O            2.2990   -18.1990   -17.7520 O.co2        1 SAH201   0.0000
     8 OXT          1.2750   -16.5170   -18.5210 O.co2        1 SAH201  -1.0000
     9 C5'          5.7510   -11.4550   -18.4820 C.3          1 SAH201   0.0000
    10 C4'          6.3370   -11.1810   -17.0970 C.3          1 SAH201   0.0000
    11 O4'          5.5830   -10.2110   -16.3800 O.3          1 SAH201   0.0000
    12 C3'          6.3600   -12.3710   -16.1430 C.3          1 SAH201   0.0000
    13 O3'          7.4070   -13.2540   -16.4820 O.3          1 SAH201   0.0000
    14 C2'          6.5340   -11.7160   -14.8000 C.3          1 SAH201   0.0000
    15 O2'          7.8760   -11.2910   -14.5850 O.3          1 SAH201   0.0000
    16 C1'          5.6850   -10.4830   -14.9950 C.3          1 SAH201   0.0000
    17 N9           4.3100   -10.6450   -14.4790 N.pl3        1 SAH201   0.0000
    18 C8           3.1220   -10.6340   -15.1630 C.2          1 SAH201   0.0000
    19 N7           2.1100   -10.8060   -14.2850 N.2          1 SAH201   0.0000
    20 C5           2.6440   -10.8910   -13.0300 C.ar         1 SAH201   0.0000
    21 C6           2.0940   -11.0510   -11.7630 C.ar         1 SAH201   0.0000
    22 N6           0.7760   -11.1570   -11.5180 N.pl3        1 SAH201   0.0000
    23 N1           2.9570   -11.1190   -10.7050 N.ar         1 SAH201   0.0000
    24 C2           4.3130   -11.0170   -10.8670 C.ar         1 SAH201   0.0000
    25 N3           4.8630   -10.8660   -12.1020 N.ar         1 SAH201   0.0000
    26 C4           4.0220   -10.7970   -13.1620 C.ar         1 SAH201   0.0000
    27 H1           4.5116   -17.6136   -19.4904 H            1 SAH201   0.0000
    28 H2           3.8681   -16.3093   -20.2329 H            1 SAH201   0.0000
    29 HA           4.2098   -16.5862   -17.4424 H            1 SAH201   0.0000
    30 HB1          3.2981   -14.5823   -17.1256 H            1 SAH201   0.0000
    31 HB2          2.6130   -14.5560   -18.6077 H            1 SAH201   0.0000
    32 HG1          4.7489   -14.0974   -19.5602 H            1 SAH201   0.0000
    33 HG2          5.3909   -14.0590   -18.0592 H            1 SAH201   0.0000
    34 H5'1         5.7231   -10.5938   -18.9895 H            1 SAH201   0.0000
    35 H5'2         6.3486   -12.1019   -18.9558 H            1 SAH201   0.0000
    36 H4'          7.2713   -10.8418   -17.2070 H            1 SAH201   0.0000
    37 H3'          5.4839   -12.8520   -16.1768 H            1 SAH201   0.0000
    38 H12          7.4088   -14.0277   -15.8484 H            1 SAH201   0.0000
    39 H2'          6.1972   -12.2909   -14.0543 H            1 SAH201   0.0000
    40 H14          8.2466   -11.7522   -13.7788 H            1 SAH201   0.0000
    41 H1'          6.1198    -9.7073   -14.5376 H            1 SAH201   0.0000
    42 H16          3.0210   -10.5176   -16.1511 H            1 SAH201   0.0000
    43 H17          0.4494   -11.2705   -10.5797 H            1 SAH201   0.0000
    44 H18          0.1225   -11.1223   -12.2741 H            1 SAH201   0.0000
    45 H19          4.9085   -11.0541   -10.0645 H            1 SAH201   0.0000
    46 H20          5.2794   -16.1740   -19.4225 H            1 SAH201   0.0000
@<TRIPOS>BOND
     1    1    2       1
     2    2    3       1
     3    2    6       1
     4    3    4       1
     5    4    5       1
     6    5    9       1
     7    6    7      ar
     8    6    8      ar
     9    9   10       1
    10   10   11       1
    11   10   12       1
    12   11   16       1
    13   12   13       1
    14   12   14       1
    15   14   15       1
    16   14   16       1
    17   16   17       1
    18   17   18       1
    19   17   26       1
    20   18   19       2
    21   19   20       1
    22   20   21      ar
    23   20   26      ar
    24   21   22       1
    25   21   23      ar
    26   23   24      ar
    27   24   25      ar
    28   25   26      ar
    29    1   27       1
    30    1   28       1
    31    2   29       1
    32    3   30       1
    33    3   31       1
    34    4   32       1
    35    4   33       1
    36    1   46       1
    37    9   34       1
    38    9   35       1
    39   10   36       1
    40   12   37       1
    41   13   38       1
    42   14   39       1
    43   15   40       1
    44   16   41       1
    45   18   42       1
    46   22   43       1
    47   22   44       1
    48   24   45       1
@<TRIPOS>SUBSTRUCTURE
     1 SAH201      1 GROUP             4 A     SAH     0 **** SAH A 201
