@<TRIPOS>MOLECULE
5dld_UD1_1_ligand
   64    66     1     0     0
SMALL
NO_CHARGES


@<TRIPOS>ATOM
     1 C1'         16.2790    -6.7580    -0.6770 C.3          1 UD1502   0.0000
     2 C2'         15.3850    -5.5640    -0.4640 C.3          1 UD1502   0.0000
     3 C3'         16.1040    -4.2540    -0.6510 C.3          1 UD1502   0.0000
     4 C4'         17.3480    -4.1610     0.1870 C.3          1 UD1502   0.0000
     5 C5'         18.2270    -5.3930     0.0070 C.3          1 UD1502   0.0000
     6 C6'         19.3210    -5.3500     1.0130 C.3          1 UD1502   0.0000
     7 C7'         12.9600    -5.7250    -1.1760 C.2          1 UD1502   0.0000
     8 C8'         11.9960    -5.6180    -2.3770 C.3          1 UD1502   0.0000
     9 N2'         14.3590    -5.5620    -1.5280 N.am         1 UD1502   0.0000
    10 O1'         16.7150    -6.7550    -1.9870 O.3          1 UD1502   0.0000
    11 O3'         15.2230    -3.1590    -0.3240 O.3          1 UD1502   0.0000
    12 O4'         18.1200    -3.0060    -0.1780 O.3          1 UD1502   0.0000
    13 O5'         17.4480    -6.6230     0.2320 O.3          1 UD1502   0.0000
    14 O6'         20.4450    -6.1580     0.6210 O.3          1 UD1502   0.0000
    15 O7'         12.6250    -5.9410    -0.0530 O.2          1 UD1502   0.0000
    16 N1          19.7970   -13.9620    -1.7010 N.pl3        1 UD1502   0.0000
    17 C2          20.5420   -15.0860    -1.1140 C.2          1 UD1502   0.0000
    18 N3          20.9830   -14.9890     0.2950 N.pl3        1 UD1502   0.0000
    19 C4          20.6940   -13.8210     1.0760 C.2          1 UD1502   0.0000
    20 C5          19.9470   -12.6980     0.4620 C.2          1 UD1502   0.0000
    21 C6          19.5050   -12.7870    -0.9310 C.2          1 UD1502   0.0000
    22 O2          20.7820   -16.0830    -1.7710 O.2          1 UD1502   0.0000
    23 O4          21.0550   -13.7760     2.2360 O.2          1 UD1502   0.0000
    24 C1B         19.3520   -14.0650    -3.0900 C.3          1 UD1502   0.0000
    25 C2B         18.1700   -15.1620    -3.1430 C.3          1 UD1502   0.0000
    26 O2'         18.3440   -15.8390    -4.4310 O.3          1 UD1502   0.0000
    27 C3B         17.0720   -14.4200    -3.0290 C.3          1 UD1502   0.0000
    28 C4B         17.3900   -13.2260    -3.9290 C.3          1 UD1502   0.0000
    29 O4B         18.8310   -12.9330    -3.4910 O.3          1 UD1502   0.0000
    30 O3B         15.8480   -15.1070    -3.5470 O.3          1 UD1502   0.0000
    31 C5B         16.5750   -12.0830    -3.7600 C.3          1 UD1502   0.0000
    32 O5B         16.4820   -11.5980    -2.4090 O.3          1 UD1502   0.0000
    33 PA          15.4010   -10.3440    -2.1230 P.3          1 UD1502   0.0000
    34 O1A         15.4050   -10.0910    -0.6380 O.co2        1 UD1502   0.0000
    35 O2A         14.0440   -10.6500    -2.7160 O.co2        1 UD1502  -1.0000
    36 O3A         15.9950    -9.0720    -2.9750 O.3          1 UD1502   0.0000
    37 PB          17.3120    -8.1730    -2.6380 P.3          1 UD1502   0.0000
    38 O1B         18.1930    -8.8950    -1.6600 O.co2        1 UD1502   0.0000
    39 O2B         17.9320    -7.8270    -3.9390 O.co2        1 UD1502  -1.0000
    40 H1'         15.7819    -7.6028    -0.4791 H            1 UD1502   0.0000
    41 H2'         14.9554    -5.6033     0.4382 H            1 UD1502   0.0000
    42 H3'         16.3650    -4.1722    -1.6129 H            1 UD1502   0.0000
    43 H4'         17.0866    -4.0862     1.1493 H            1 UD1502   0.0000
    44 H5'         18.6144    -5.4011    -0.9149 H            1 UD1502   0.0000
    45 H6'1        18.9699    -5.6872     1.8865 H            1 UD1502   0.0000
    46 H6'2        19.6252    -4.4033     1.1191 H            1 UD1502   0.0000
    47 H8'1        11.0551    -5.7397    -2.0610 H            1 UD1502   0.0000
    48 H8'2        12.0912    -4.7177    -2.8017 H            1 UD1502   0.0000
    49 H8'3        12.2172    -6.3273    -3.0462 H            1 UD1502   0.0000
    50 H11         14.6270    -5.4490    -2.4848 H            1 UD1502   0.0000
    51 H12         15.1101    -2.5714    -1.1252 H            1 UD1502   0.0000
    52 H13         18.2156    -2.4047     0.6153 H            1 UD1502   0.0000
    53 H6'         21.2850    -5.7641     0.9941 H            1 UD1502   0.0000
    54 H15         21.4885   -15.7467     0.7077 H            1 UD1502   0.0000
    55 H16         19.7448   -11.8792     0.9992 H            1 UD1502   0.0000
    56 H17         19.0002   -12.0297    -1.3453 H            1 UD1502   0.0000
    57 H1B         20.1100   -14.3344    -3.6841 H            1 UD1502   0.0000
    58 H2B         18.2464   -15.8089    -2.3843 H            1 UD1502   0.0000
    59 H20         19.2476   -16.2662    -4.4636 H            1 UD1502   0.0000
    60 H3B         16.9397   -14.1254    -2.0826 H            1 UD1502   0.0000
    61 H4B         17.3786   -13.5115    -4.8873 H            1 UD1502   0.0000
    62 H23         15.6984   -15.9527    -3.0347 H            1 UD1502   0.0000
    63 H5B1        15.6527   -12.3106    -4.0722 H            1 UD1502   0.0000
    64 H5B2        16.9477   -11.3493    -4.3282 H            1 UD1502   0.0000
@<TRIPOS>BOND
     1    1    2       1
     2    1   10       1
     3    1   13       1
     4    2    3       1
     5    2    9       1
     6    3    4       1
     7    3   11       1
     8    4    5       1
     9    4   12       1
    10    5    6       1
    11    5   13       1
    12    6   14       1
    13    7    8       1
    14    7    9      am
    15    7   15       2
    16   10   37       1
    17   16   17       1
    18   16   21       1
    19   16   24       1
    20   17   18       1
    21   17   22       2
    22   18   19       1
    23   19   20       1
    24   19   23       2
    25   20   21       2
    26   24   25       1
    27   24   29       1
    28   25   26       1
    29   25   27       1
    30   27   28       1
    31   27   30       1
    32   28   29       1
    33   28   31       1
    34   31   32       1
    35   32   33       1
    36   33   34      ar
    37   33   35      ar
    38   33   36       1
    39   36   37       1
    40   37   38      ar
    41   37   39      ar
    42    1   40       1
    43    2   41       1
    44    3   42       1
    45    4   43       1
    46    5   44       1
    47    6   45       1
    48    6   46       1
    49    8   47       1
    50    8   48       1
    51    8   49       1
    52    9   50       1
    53   11   51       1
    54   12   52       1
    55   14   53       1
    56   18   54       1
    57   20   55       1
    58   21   56       1
    59   24   57       1
    60   25   58       1
    61   26   59       1
    62   27   60       1
    63   28   61       1
    64   30   62       1
    65   31   63       1
    66   31   64       1
@<TRIPOS>SUBSTRUCTURE
     1 UD1502      1 GROUP             4 A     UD1     0 **** UD1 A 502
