@<TRIPOS>MOLECULE
./coach420/1r15/ligand.pdb
 29 27 0 0 0
SMALL
GASTEIGER

@<TRIPOS>ATOM
      1  OP3      -12.7600   -0.5720   15.2160 O.2   1179  N1179      -0.2224
      2  P        -12.5530    0.1900   16.5470 P.3   1179  N1179       0.5327
      3  OP1      -12.4170   -0.7270   17.7950 O.3   1179  N1179      -0.1145
      4  OP2      -13.5740    1.3480   16.5620 O.3   1179  N1179      -0.1145
      5  O5'      -11.1230    1.2310   16.2510 O.3   1179  N1179      -0.2675
      6  C5'      -11.0570    2.2620   15.1140 C.3   1179  N1179       0.1858
      7  C4'      -10.2520    3.5350   15.2730 C.3   1179  N1179       0.1782
      8  O4'       -8.7910    3.0230   15.3340 O.3   1179  N1179      -0.3482
      9  C3'      -10.1810    4.6690   14.1600 C.3   1179  N1179       0.2140
     10  O3'      -11.3300    4.7200   13.2820 O.3   1179  N1179      -0.2176
     11  C2'       -8.9260    4.1600   13.3120 C.3   1179  N1179       0.2140
     12  O2'       -8.3810    5.1010   12.3520 O.3   1179  N1179      -0.2176
     13  C1'       -7.8510    3.6610   14.4340 C.3   1179  N1179       0.1777
     14  C2        -3.8430    0.1850   14.2700 C.3   319  NCA319      0.0144
     15  C3        -3.9320   -1.2020   14.5830 C.3   319  NCA319      0.1015
     16  C4        -5.2850   -1.6620   14.9090 C.2   319  NCA319     -0.0218
     17  C5        -6.4110   -0.8340   14.9340 C.2   319  NCA319     -0.0299
     18  C6        -6.2600    0.5150   14.6260 C.3   319  NCA319      0.0304
     19  C7        -2.6960   -2.1990   14.6080 C.2   319  NCA319      0.2643
     20  O7        -2.8920   -3.3730   14.8960 O.2   319  NCA319     -0.2713
     21  N7        -1.4910   -1.7920   14.3340 N.am  319  NCA319     -0.0875
     22  C2         0.8940   -1.8330   22.7700 C.3   419  NCA419      0.0359
     23  C3         1.0570   -2.5740   21.5600 C.2   419  NCA419      0.0348
     24  C4         0.7980   -1.8260   20.3860 C.2   419  NCA419      0.0003
     25  C5         0.4150   -0.5070   20.3910 C.2   419  NCA419     -0.0002
     26  C6         0.2670    0.1680   21.5800 C.2   419  NCA419     -0.0000
     27  C7         1.4690   -4.0820   21.4830 C.2   419  NCA419      0.2802
     28  O7         1.5690   -4.5870   20.3840 O.2   419  NCA419     -0.2670
     29  N7         1.7020   -4.7860   22.5720 N.am  419  NCA419     -0.0840
@<TRIPOS>BOND
     1     1     2    2
     2     2     5    1
     3     2     4    1
     4     2     3    1
     5     5     6    1
     6     6     7    1
     7     7     9    1
     8     7     8    1
     9     8    13    1
    10     9    10    1
    11     9    11    1
    12    11    12    1
    13    11    13    1
    14    14    15    1
    15    15    19    1
    16    15    16    1
    17    16    17    2
    18    17    18    1
    19    19    21   am
    20    19    20    2
    21    22    23    1
    22    23    24    2
    23    23    27    1
    24    24    25    1
    25    25    26    2
    26    27    28    2
    27    27    29   am
