@<TRIPOS>MOLECULE
4c04_SFG_1_ligand
   51    53     1     0     0
SMALL
NO_CHARGES


@<TRIPOS>ATOM
     1 N           19.2830   -12.6000     6.5450 N.4          1 SFG1377   1.0000
     2 CA          20.7430   -12.6700     6.7340 C.3          1 SFG1377   0.0000
     3 C           21.0420   -12.2670     8.1470 C.2          1 SFG1377   0.0000
     4 O           20.2170   -11.6150     8.7620 O.co2        1 SFG1377   0.0000
     5 OXT         22.2130   -12.6360     8.6920 O.co2        1 SFG1377  -1.0000
     6 CB          21.5220   -11.7420     5.7890 C.3          1 SFG1377   0.0000
     7 CG          20.8340   -10.3880     5.6000 C.3          1 SFG1377   0.0000
     8 CD          21.6760    -9.4830     4.6900 C.3          1 SFG1377   0.0000
     9 NE          21.6010    -8.1400     5.2760 N.4          1 SFG1377   1.0000
    10 C5'         21.0770    -9.3120     3.2920 C.3          1 SFG1377   0.0000
    11 C4'         21.2580   -10.4970     2.3410 C.3          1 SFG1377   0.0000
    12 O4'         20.4340   -10.2630     1.1860 O.3          1 SFG1377   0.0000
    13 C3'         22.6920   -10.6040     1.8130 C.3          1 SFG1377   0.0000
    14 O3'         23.1400   -11.9430     2.0440 O.3          1 SFG1377   0.0000
    15 C2'         22.5650   -10.2890     0.2930 C.3          1 SFG1377   0.0000
    16 O2'         23.3720   -11.1320    -0.5020 O.3          1 SFG1377   0.0000
    17 C1'         21.1180   -10.7030    -0.0160 C.3          1 SFG1377   0.0000
    18 N9          20.3800   -10.0500    -1.1020 N.pl3        1 SFG1377   0.0000
    19 C8          20.3850    -8.7310    -1.4370 C.2          1 SFG1377   0.0000
    20 N7          19.5180    -8.5110    -2.4120 N.2          1 SFG1377   0.0000
    21 C5          18.8760    -9.6850    -2.7150 C.ar         1 SFG1377   0.0000
    22 C6          17.8620   -10.0680    -3.6020 C.ar         1 SFG1377   0.0000
    23 N6          17.2650    -9.1650    -4.4820 N.pl3        1 SFG1377   0.0000
    24 N1          17.4630   -11.3350    -3.5830 N.ar         1 SFG1377   0.0000
    25 C2          18.0170   -12.2330    -2.7960 C.ar         1 SFG1377   0.0000
    26 N3          18.9760   -11.9270    -1.9470 N.ar         1 SFG1377   0.0000
    27 C4          19.4200   -10.6740    -1.8670 C.ar         1 SFG1377   0.0000
    28 H1          19.0806   -12.3776     5.5913 H            1 SFG1377   0.0000
    29 H2          18.8744   -13.4832     6.7753 H            1 SFG1377   0.0000
    30 HA          21.0466   -13.6120     6.5912 H            1 SFG1377   0.0000
    31 HB1         21.6040   -12.1875     4.8975 H            1 SFG1377   0.0000
    32 HB2         22.4337   -11.5882     6.1699 H            1 SFG1377   0.0000
    33 HG1         20.7227    -9.9476     6.4909 H            1 SFG1377   0.0000
    34 HG2         19.9359   -10.5299     5.1838 H            1 SFG1377   0.0000
    35 HD          22.6224    -9.8022     4.6401 H            1 SFG1377   0.0000
    36 HE1         22.1356    -7.5034     4.7202 H            1 SFG1377   0.0000
    37 HE2         20.6473    -7.8403     5.3016 H            1 SFG1377   0.0000
    38 H5'1        21.5046    -8.5122     2.8706 H            1 SFG1377   0.0000
    39 H5'2        20.0959    -9.1493     3.3963 H            1 SFG1377   0.0000
    40 H4'         20.9898   -11.3482     2.7921 H            1 SFG1377   0.0000
    41 H3'         23.2903    -9.9434     2.2664 H            1 SFG1377   0.0000
    42 H15         22.5422   -12.5826     1.5607 H            1 SFG1377   0.0000
    43 H2'         22.7273    -9.3220     0.0966 H            1 SFG1377   0.0000
    44 H17         23.1001   -12.0839    -0.3607 H            1 SFG1377   0.0000
    45 H1'         21.0549   -11.6971    -0.1048 H            1 SFG1377   0.0000
    46 H19         20.9586    -8.0320    -1.0098 H            1 SFG1377   0.0000
    47 H20         16.5434    -9.4736    -5.1018 H            1 SFG1377   0.0000
    48 H21         17.5586    -8.2091    -4.4930 H            1 SFG1377   0.0000
    49 H22         17.6988   -13.1798    -2.8445 H            1 SFG1377   0.0000
    50 H23         18.9034   -11.8917     7.1402 H            1 SFG1377   0.0000
    51 HE3         21.9689    -8.1609     6.2056 H            1 SFG1377   0.0000
@<TRIPOS>BOND
     1    1    2       1
     2    2    3       1
     3    2    6       1
     4    3    4      ar
     5    3    5      ar
     6    6    7       1
     7    7    8       1
     8    8    9       1
     9    8   10       1
    10   10   11       1
    11   11   12       1
    12   11   13       1
    13   12   17       1
    14   13   14       1
    15   13   15       1
    16   15   16       1
    17   15   17       1
    18   17   18       1
    19   18   19       1
    20   18   27       1
    21   19   20       2
    22   20   21       1
    23   21   22      ar
    24   21   27      ar
    25   22   23       1
    26   22   24      ar
    27   24   25      ar
    28   25   26      ar
    29   26   27      ar
    30    1   28       1
    31    1   29       1
    32    2   30       1
    33    1   50       1
    34    6   31       1
    35    6   32       1
    36    7   33       1
    37    7   34       1
    38    8   35       1
    39    9   36       1
    40    9   37       1
    41   10   38       1
    42   10   39       1
    43   11   40       1
    44   13   41       1
    45   14   42       1
    46   15   43       1
    47   16   44       1
    48   17   45       1
    49   19   46       1
    50   23   47       1
    51   23   48       1
    52   25   49       1
    53    9   51       1
@<TRIPOS>SUBSTRUCTURE
     1 SFG1377     1 GROUP             4 A     SFG     0 **** SFG A1377
