@<TRIPOS>MOLECULE
4itb_NDP_1_ligand
   73    77     1     0     0
SMALL
NO_CHARGES


@<TRIPOS>ATOM
     1 PA           0.0600    49.9750    27.9340 P.3          1 NDP501   0.0000
     2 O1A          0.6200    50.9000    28.9790 O.co2        1 NDP501   0.0000
     3 O2A         -1.4140    49.6780    27.9530 O.co2        1 NDP501  -1.0000
     4 O5B          0.7980    48.5510    28.0860 O.3          1 NDP501   0.0000
     5 C5B          2.0190    48.3380    28.8030 C.3          1 NDP501   0.0000
     6 C4B          1.8940    47.1300    29.7300 C.3          1 NDP501   0.0000
     7 O4B          1.0450    47.4840    30.8260 O.3          1 NDP501   0.0000
     8 C3B          1.2460    45.9060    29.0860 C.3          1 NDP501   0.0000
     9 O3B          1.7840    44.7280    29.7040 O.3          1 NDP501   0.0000
    10 C2B         -0.2020    46.0770    29.4970 C.3          1 NDP501   0.0000
    11 O2B         -0.9220    44.8580    29.4830 O.3          1 NDP501   0.0000
    12 C1B         -0.0190    46.5350    30.9130 C.3          1 NDP501   0.0000
    13 N9A         -1.1420    47.2800    31.4880 N.pl3        1 NDP501   0.0000
    14 C8A         -1.9800    48.1420    30.8700 C.2          1 NDP501   0.0000
    15 N7A         -2.8630    48.6570    31.7650 N.2          1 NDP501   0.0000
    16 C5A         -2.5570    48.1390    32.9660 C.ar         1 NDP501   0.0000
    17 C6A         -3.0790    48.2400    34.3340 C.ar         1 NDP501   0.0000
    18 N6A         -4.1270    49.0520    34.6060 N.pl3        1 NDP501   0.0000
    19 N1A         -2.4640    47.5110    35.2850 N.ar         1 NDP501   0.0000
    20 C2A         -1.4230    46.7050    35.0350 C.ar         1 NDP501   0.0000
    21 N3A         -0.9060    46.5470    33.8110 N.ar         1 NDP501   0.0000
    22 C4A         -1.4290    47.2320    32.7740 C.ar         1 NDP501   0.0000
    23 O3           0.4530    50.5110    26.4630 O.3          1 NDP501   0.0000
    24 PN          -0.4160    50.4860    25.0910 P.3          1 NDP501   0.0000
    25 O1N         -1.8880    50.7510    25.3240 O.co2        1 NDP501   0.0000
    26 O2N          0.0050    49.2850    24.2880 O.co2        1 NDP501  -1.0000
    27 O5D          0.2360    51.7840    24.3990 O.3          1 NDP501   0.0000
    28 C5D         -0.3900    53.0520    24.5980 C.3          1 NDP501   0.0000
    29 C4D          0.6560    54.1570    24.6810 C.3          1 NDP501   0.0000
    30 O4D          1.4780    54.0110    25.8450 O.3          1 NDP501   0.0000
    31 C3D          1.6350    54.1370    23.5210 C.3          1 NDP501   0.0000
    32 O3D          1.1330    54.8240    22.3780 O.3          1 NDP501   0.0000
    33 C2D          2.8110    54.8730    24.1140 C.3          1 NDP501   0.0000
    34 O2D          2.5190    56.2770    24.0960 O.3          1 NDP501   0.0000
    35 C1D          2.8370    54.3780    25.5560 C.3          1 NDP501   0.0000
    36 N1N          3.7750    53.2420    25.6950 N.ar         1 NDP501   1.0000
    37 C2N          4.9880    53.4730    26.2180 C.ar         1 NDP501   0.0000
    38 C3N          6.0190    52.5400    26.1110 C.ar         1 NDP501   0.0000
    39 C7N          7.3690    52.8130    26.7110 C.2          1 NDP501   0.0000
    40 O7N          8.3590    52.2570    26.2550 O.2          1 NDP501   0.0000
    41 N7N          7.4730    53.6440    27.7430 N.am         1 NDP501   0.0000
    42 C4N          5.8100    51.2290    25.3930 C.ar         1 NDP501   0.0000
    43 C5N          4.3950    50.9940    25.1410 C.ar         1 NDP501   0.0000
    44 C6N          3.4460    51.9920    25.3060 C.ar         1 NDP501   0.0000
    45 P2B         -1.9080    44.4790    28.2740 P.3          1 NDP501   0.0000
    46 O1X         -2.4710    43.1660    28.7240 O.co2        1 NDP501   0.0000
    47 O2X         -2.9540    45.5790    28.2530 O.co2        1 NDP501  -1.0000
    48 O3X         -1.1110    44.4150    27.0060 O.co2        1 NDP501  -1.0000
    49 H5B1         2.2262    49.1505    29.3479 H            1 NDP501   0.0000
    50 H5B2         2.7594    48.1765    28.1506 H            1 NDP501   0.0000
    51 H4B          2.7987    46.8828    30.0771 H            1 NDP501   0.0000
    52 H3B          1.3587    45.8970    28.0924 H            1 NDP501   0.0000
    53 H5           2.7742    44.7020    29.5665 H            1 NDP501   0.0000
    54 H2B         -0.6573    46.7752    28.9445 H            1 NDP501   0.0000
    55 H1B          0.2369    45.7690    31.5027 H            1 NDP501   0.0000
    56 H8A         -1.9538    48.3677    29.8962 H            1 NDP501   0.0000
    57 H6A1        -4.4795    49.1178    35.5395 H            1 NDP501   0.0000
    58 H6A2        -4.5489    49.5862    33.8735 H            1 NDP501   0.0000
    59 H2A         -1.0151    46.2000    35.7957 H            1 NDP501   0.0000
    60 H5D1        -0.9139    53.0303    25.4495 H            1 NDP501   0.0000
    61 H5D2        -1.0057    53.2387    23.8325 H            1 NDP501   0.0000
    62 H4D          0.1968    55.0449    24.7103 H            1 NDP501   0.0000
    63 H3D          1.8869    53.1980    23.2869 H            1 NDP501   0.0000
    64 H16          0.9533    55.7787    22.6152 H            1 NDP501   0.0000
    65 H2D          3.6623    54.6635    23.6330 H            1 NDP501   0.0000
    66 H18          3.2886    56.7826    24.4860 H            1 NDP501   0.0000
    67 H1D          3.1195    55.1223    26.1612 H            1 NDP501   0.0000
    68 H2N          5.1573    54.3348    26.6961 H            1 NDP501   0.0000
    69 H7N1         8.3687    53.8299    28.1469 H            1 NDP501   0.0000
    70 H7N2         6.6556    54.0833    28.1156 H            1 NDP501   0.0000
    71 H4N          6.5447    50.6053    25.1261 H            1 NDP501   0.0000
    72 H5N          4.0992    50.0873    24.8404 H            1 NDP501   0.0000
    73 H6N          2.4850    51.7781    25.1307 H            1 NDP501   0.0000
@<TRIPOS>BOND
     1    1    2      ar
     2    1    3      ar
     3    1    4       1
     4    1   23       1
     5    4    5       1
     6    5    6       1
     7    6    7       1
     8    6    8       1
     9    7   12       1
    10    8    9       1
    11    8   10       1
    12   10   11       1
    13   10   12       1
    14   11   45       1
    15   12   13       1
    16   13   14       1
    17   13   22       1
    18   14   15       2
    19   15   16       1
    20   16   17      ar
    21   16   22      ar
    22   17   18       1
    23   17   19      ar
    24   19   20      ar
    25   20   21      ar
    26   21   22      ar
    27   23   24       1
    28   24   25      ar
    29   24   26      ar
    30   24   27       1
    31   27   28       1
    32   28   29       1
    33   29   30       1
    34   29   31       1
    35   30   35       1
    36   31   32       1
    37   31   33       1
    38   33   34       1
    39   33   35       1
    40   35   36       1
    41   36   37      ar
    42   36   44      ar
    43   37   38      ar
    44   38   39       1
    45   38   42      ar
    46   39   40       2
    47   39   41      am
    48   42   43      ar
    49   43   44      ar
    50   45   46      ar
    51   45   47      ar
    52   45   48      ar
    53   43   72       1
    54    5   49       1
    55    5   50       1
    56    6   51       1
    57    8   52       1
    58    9   53       1
    59   10   54       1
    60   12   55       1
    61   14   56       1
    62   18   57       1
    63   18   58       1
    64   20   59       1
    65   44   73       1
    66   28   60       1
    67   28   61       1
    68   29   62       1
    69   31   63       1
    70   32   64       1
    71   33   65       1
    72   34   66       1
    73   35   67       1
    74   37   68       1
    75   41   69       1
    76   41   70       1
    77   42   71       1
@<TRIPOS>SUBSTRUCTURE
     1 NDP501      1 GROUP             4 A     NDP     0 **** NDP A 501
