@<TRIPOS>MOLECULE
4mlp_2CX_3_ligand
   50    53     1     0     0
SMALL
NO_CHARGES


@<TRIPOS>ATOM
     1 C10         37.5440    62.2430    13.6250 C.ar         1 2CX900   0.0000
     2 C13         36.5860    59.5940    13.3080 C.ar         1 2CX900   0.0000
     3 C15         35.6250    60.6520    10.9430 C.ar         1 2CX900   0.0000
     4 C17         35.1890    62.3410     9.2210 C.ar         1 2CX900   0.0000
     5 C20         34.9200    59.7010    10.1980 C.ar         1 2CX900   0.0000
     6 C21         34.8390    66.9840    13.7120 C.3          1 2CX900   0.0000
     7 C22         35.9590    66.6200    14.6960 C.2          1 2CX900   0.0000
     8 C24         37.8540    66.6090    15.9150 C.2          1 2CX900   0.0000
     9 O01         34.1740    67.4460    10.0590 O.2          1 2CX900   0.0000
    10 S02         33.9080    67.7280    11.4100 S.o2         1 2CX900   0.0000
    11 N03         35.2540    67.4390    12.4000 N.3          1 2CX900   0.0000
    12 C04         36.1480    66.5350    11.7300 C.3          1 2CX900   0.0000
    13 C05         35.7970    64.9950    11.9500 C.3          1 2CX900   0.0000
    14 O06         34.5560    64.7550    11.2930 O.3          1 2CX900   0.0000
    15 C07         36.8250    64.0960    11.2600 C.3          1 2CX900   0.0000
    16 N08         36.4680    62.6840    11.3950 N.pl3        1 2CX900   0.0000
    17 C09         36.8180    61.9070    12.4630 C.ar         1 2CX900   0.0000
    18 C11         37.7920    61.2350    14.6190 C.ar         1 2CX900   0.0000
    19 C12         37.2990    59.9180    14.4350 C.ar         1 2CX900   0.0000
    20 C14         36.3410    60.6190    12.2670 C.ar         1 2CX900   0.0000
    21 C16         35.7520    61.9580    10.4690 C.ar         1 2CX900   0.0000
    22 C18         34.4680    61.3630     8.4550 C.ar         1 2CX900   0.0000
    23 C19         34.3520    60.0770     8.9290 C.ar         1 2CX900   0.0000
    24 C23         37.1730    67.3030    14.9220 C.2          1 2CX900   0.0000
    25 C25         37.0610    65.5150    16.2890 C.2          1 2CX900   0.0000
    26 O26         35.9400    65.5680    15.5410 O.2          1 2CX900   0.0000
    27 C27         32.4480    66.8180    11.9540 C.3          1 2CX900   0.0000
    28 O28         33.6220    69.2130    11.3250 O.2          1 2CX900   0.0000
    29 H1          37.8832    63.1746    13.7559 H            1 2CX900   0.0000
    30 H2          36.2320    58.6663    13.1896 H            1 2CX900   0.0000
    31 H3          35.2933    63.2760     8.8820 H            1 2CX900   0.0000
    32 H4          34.8114    58.7688    10.5432 H            1 2CX900   0.0000
    33 H5          34.2939    67.7120    14.1278 H            1 2CX900   0.0000
    34 H6          34.2695    66.1718    13.5859 H            1 2CX900   0.0000
    35 H7          38.7482    66.8470    16.2943 H            1 2CX900   0.0000
    36 H8          37.0740    66.6983    12.0704 H            1 2CX900   0.0000
    37 H9          36.1144    66.7284    10.7494 H            1 2CX900   0.0000
    38 H10         35.7321    64.7798    12.9244 H            1 2CX900   0.0000
    39 H11         34.0631    64.0258    11.7677 H            1 2CX900   0.0000
    40 H12         37.7217    64.2469    11.6760 H            1 2CX900   0.0000
    41 H13         36.8643    64.3311    10.2888 H            1 2CX900   0.0000
    42 H14         38.3130    61.4626    15.4417 H            1 2CX900   0.0000
    43 H15         37.4720    59.2210    15.1309 H            1 2CX900   0.0000
    44 H16         34.0524    61.6158     7.5813 H            1 2CX900   0.0000
    45 H17         33.8662    59.3932     8.3846 H            1 2CX900   0.0000
    46 H18         37.4847    68.1307    14.4554 H            1 2CX900   0.0000
    47 H19         37.2841    64.8265    16.9790 H            1 2CX900   0.0000
    48 H20         32.2658    67.0241    12.9154 H            1 2CX900   0.0000
    49 H21         31.6608    67.0890    11.4001 H            1 2CX900   0.0000
    50 H22         32.6082    65.8366    11.8480 H            1 2CX900   0.0000
@<TRIPOS>BOND
     1    1   17      ar
     2    1   18      ar
     3    2   19      ar
     4    2   20      ar
     5    3    5      ar
     6    3   20       1
     7    3   21      ar
     8    4   21      ar
     9    4   22      ar
    10    5   23      ar
    11    6    7       1
    12    6   11       1
    13    7   24       2
    14    7   26       1
    15    8   24       1
    16    8   25       2
    17    9   10       2
    18   10   11       1
    19   10   27       1
    20   10   28       2
    21   11   12       1
    22   12   13       1
    23   13   14       1
    24   13   15       1
    25   15   16       1
    26   16   17       1
    27   16   21       1
    28   17   20      ar
    29   18   19      ar
    30   22   23      ar
    31   25   26       1
    32    1   29       1
    33    2   30       1
    34    4   31       1
    35    5   32       1
    36    6   33       1
    37    6   34       1
    38    8   35       1
    39   12   36       1
    40   12   37       1
    41   13   38       1
    42   14   39       1
    43   15   40       1
    44   15   41       1
    45   18   42       1
    46   19   43       1
    47   22   44       1
    48   23   45       1
    49   24   46       1
    50   25   47       1
    51   27   48       1
    52   27   49       1
    53   27   50       1
@<TRIPOS>SUBSTRUCTURE
     1 2CX900      1 GROUP             4 C     2CX     0 **** 2CX C 900
