@<TRIPOS>MOLECULE
2dxe_GDP_1_ligand
   40    42     1     0     0
SMALL
NO_CHARGES


@<TRIPOS>ATOM
     1 PB          27.3810     3.2240    -8.7070 P.3          1 GDP501   0.0000
     2 O1B         25.9640     3.3610    -9.1110 O.co2        1 GDP501   0.0000
     3 O2B         28.1810     4.6190    -8.7790 O.co2        1 GDP501  -1.0000
     4 O3B         27.5540     2.6970    -7.1950 O.co2        1 GDP501  -1.0000
     5 O3A         28.2060     2.1990    -9.6360 O.3          1 GDP501   0.0000
     6 PA          27.4900     0.9480   -10.3540 P.3          1 GDP501   0.0000
     7 O1A         26.0370     1.0340   -10.0850 O.co2        1 GDP501   0.0000
     8 O2A         27.9410     0.8990   -11.7630 O.co2        1 GDP501  -1.0000
     9 O5'         28.1110    -0.3100    -9.5620 O.3          1 GDP501   0.0000
    10 C5'         27.6790    -0.6190    -8.2340 C.3          1 GDP501   0.0000
    11 C4'         28.8770    -0.9990    -7.3620 C.3          1 GDP501   0.0000
    12 O4'         29.6040    -2.1260    -7.8810 O.3          1 GDP501   0.0000
    13 C3'         29.8970     0.1390    -7.3460 C.3          1 GDP501   0.0000
    14 O3'         29.4690     1.1310    -6.4090 O.3          1 GDP501   0.0000
    15 C2'         31.0770    -0.6390    -6.7670 C.3          1 GDP501   0.0000
    16 O2'         30.8310    -0.9340    -5.3890 O.3          1 GDP501   0.0000
    17 C1'         31.0010    -1.9230    -7.5970 C.3          1 GDP501   0.0000
    18 N9          31.6890    -1.7680    -8.9000 N.pl3        1 GDP501   0.0000
    19 C8          31.3330    -0.9480    -9.8870 C.2          1 GDP501   0.0000
    20 N7          32.1560    -1.1140   -10.9200 N.2          1 GDP501   0.0000
    21 C5          33.0470    -2.0450   -10.5910 C.2          1 GDP501   0.0000
    22 C6          34.1230    -2.6120   -11.2640 C.2          1 GDP501   0.0000
    23 O6          34.4000    -2.2650   -12.4110 O.2          1 GDP501   0.0000
    24 N1          34.8850    -3.5900   -10.6140 N.pl3        1 GDP501   0.0000
    25 C2          34.5410    -3.9680    -9.3100 C.2          1 GDP501   0.0000
    26 N2          35.2640    -4.8870    -8.6760 N.pl3        1 GDP501   0.0000
    27 N3          33.4940    -3.4010    -8.6950 N.2          1 GDP501   0.0000
    28 C4          32.7510    -2.4610    -9.2990 C.2          1 GDP501   0.0000
    29 H5'1        27.0374    -1.3854    -8.2656 H            1 GDP501   0.0000
    30 H5'2        27.2246     0.1801    -7.8404 H            1 GDP501   0.0000
    31 H4'         28.5704    -1.1930    -6.4301 H            1 GDP501   0.0000
    32 H3'         30.0819     0.5124    -8.2551 H            1 GDP501   0.0000
    33 H5          28.8903     1.8011    -6.8740 H            1 GDP501   0.0000
    34 H2'         31.9439    -0.1582    -6.8986 H            1 GDP501   0.0000
    35 H7          31.5474    -0.5210    -4.8267 H            1 GDP501   0.0000
    36 H1'         31.3759    -2.6976    -7.0876 H            1 GDP501   0.0000
    37 H9          30.5662    -0.3068    -9.8568 H            1 GDP501   0.0000
    38 H10         35.6650    -4.0134   -11.0748 H            1 GDP501   0.0000
    39 H11         35.0213    -5.1593    -7.7449 H            1 GDP501   0.0000
    40 H12         36.0503    -5.3056    -9.1304 H            1 GDP501   0.0000
@<TRIPOS>BOND
     1    1    2      ar
     2    1    3      ar
     3    1    4      ar
     4    1    5       1
     5    5    6       1
     6    6    7      ar
     7    6    8      ar
     8    6    9       1
     9    9   10       1
    10   10   11       1
    11   11   12       1
    12   11   13       1
    13   12   17       1
    14   13   14       1
    15   13   15       1
    16   15   16       1
    17   15   17       1
    18   17   18       1
    19   18   19       1
    20   18   28       1
    21   19   20       2
    22   20   21       1
    23   21   22       1
    24   21   28       2
    25   22   23       2
    26   22   24       1
    27   24   25       1
    28   25   26       1
    29   25   27       2
    30   27   28       1
    31   26   40       1
    32   26   39       1
    33   24   38       1
    34   10   29       1
    35   10   30       1
    36   11   31       1
    37   13   32       1
    38   14   33       1
    39   15   34       1
    40   16   35       1
    41   17   36       1
    42   19   37       1
@<TRIPOS>SUBSTRUCTURE
     1 GDP501      1 GROUP             4 A     GDP     0 **** GDP A 501
