@<TRIPOS>MOLECULE
3zfd_ANP_1_ligand
   43    45     1     0     0
SMALL
NO_CHARGES


@<TRIPOS>ATOM
     1 C2         -25.3740     3.0640    27.7020 C.ar         1 ANP501   0.0000
     2 C4         -23.7170     4.4000    26.7110 C.ar         1 ANP501   0.0000
     3 C5         -24.7290     5.2850    26.1700 C.ar         1 ANP501   0.0000
     4 C6         -26.1280     4.9660    26.4980 C.ar         1 ANP501   0.0000
     5 C8         -22.7660     5.9910    25.5400 C.2          1 ANP501   0.0000
     6 N1         -26.3530     3.8600    27.2520 N.ar         1 ANP501   0.0000
     7 O1B        -19.5750    10.7870    22.6120 O.co2        1 ANP501   0.0000
     8 O2'        -21.0250     2.3490    24.9710 O.3          1 ANP501   0.0000
     9 O1G        -15.7700    10.0380    20.4740 O.co2        1 ANP501   0.0000
    10 O3'        -18.5410     2.7900    26.1750 O.3          1 ANP501   0.0000
    11 C3'        -19.1560     3.8950    25.4710 C.3          1 ANP501   0.0000
    12 C4'        -19.0950     5.1540    26.3120 C.3          1 ANP501   0.0000
    13 C5'        -18.7360     6.3670    25.4530 C.3          1 ANP501   0.0000
    14 O5'        -19.6570     6.4760    24.3600 O.3          1 ANP501   0.0000
    15 PA         -19.2170     7.0360    22.9190 P.3          1 ANP501   0.0000
    16 O1A        -20.4810     7.0070    22.0900 O.co2        1 ANP501   0.0000
    17 O3A        -18.8280     8.5640    23.3030 O.3          1 ANP501   0.0000
    18 O2A        -17.9540     6.3570    22.4950 O.co2        1 ANP501  -1.0000
    19 O2B        -18.5610     9.1870    20.8800 O.co2        1 ANP501  -1.0000
    20 O2G        -14.5510    10.6510    22.5970 O.co2        1 ANP501  -1.0000
    21 O3G        -16.0740    12.2930    21.4840 O.co2        1 ANP501  -1.0000
    22 C2'        -20.6380     3.7110    25.2610 C.3          1 ANP501   0.0000
    23 C1'        -21.2360     4.2890    26.5360 C.3          1 ANP501   0.0000
    24 O4'        -20.3810     5.3760    26.9070 O.3          1 ANP501   0.0000
    25 N9         -22.5570     4.8670    26.2710 N.pl3        1 ANP501   0.0000
    26 N7         -24.0750     6.2550    25.4670 N.2          1 ANP501   0.0000
    27 N6         -27.1410     5.7320    26.0930 N.pl3        1 ANP501   0.0000
    28 N3         -24.0630     3.2920    27.4400 N.ar         1 ANP501   0.0000
    29 PB         -18.5230     9.7700    22.2860 P.3          1 ANP501   0.0000
    30 N3B        -17.0030    10.2340    22.7510 N.3          1 ANP501  -1.0000
    31 PG         -15.8120    10.8010    21.7890 P.3          1 ANP501   0.0000
    32 H1         -25.6203     2.2678    28.2546 H            1 ANP501   0.0000
    33 H2         -22.0461     6.5417    25.1175 H            1 ANP501   0.0000
    34 H2'        -22.0159     2.3038    24.8445 H            1 ANP501   0.0000
    35 H3'        -19.2146     2.0628    26.3074 H            1 ANP501   0.0000
    36 H5         -18.6988     4.0431    24.5941 H            1 ANP501   0.0000
    37 H4'        -18.4100     5.0410    27.0317 H            1 ANP501   0.0000
    38 H5'1       -17.8082     6.2584    25.0961 H            1 ANP501   0.0000
    39 H5'2       -18.7835     7.1952    26.0113 H            1 ANP501   0.0000
    40 H9         -20.9197     4.2870    24.4936 H            1 ANP501   0.0000
    41 H1'        -21.2807     3.6002    27.2596 H            1 ANP501   0.0000
    42 H11        -28.0803     5.4869    26.3331 H            1 ANP501   0.0000
    43 H12        -26.9616     6.5517    25.5490 H            1 ANP501   0.0000
@<TRIPOS>BOND
     1    1    6      ar
     2    1   28      ar
     3    2    3      ar
     4    2   25       1
     5    2   28      ar
     6    3    4      ar
     7    3   26       1
     8    4    6      ar
     9    4   27       1
    10    5   25       1
    11    5   26       2
    12    7   29      ar
    13    8   22       1
    14    9   31      ar
    15   10   11       1
    16   11   12       1
    17   11   22       1
    18   12   13       1
    19   12   24       1
    20   13   14       1
    21   14   15       1
    22   15   16      ar
    23   15   17       1
    24   15   18      ar
    25   17   29       1
    26   19   29      ar
    27   20   31      ar
    28   21   31      ar
    29   22   23       1
    30   23   24       1
    31   23   25       1
    32   29   30       1
    33   30   31       1
    34    1   32       1
    35    5   33       1
    36   22   40       1
    37    8   34       1
    38   27   43       1
    39   10   35       1
    40   11   36       1
    41   12   37       1
    42   13   38       1
    43   13   39       1
    44   27   42       1
    45   23   41       1
@<TRIPOS>SUBSTRUCTURE
     1 ANP501      1 GROUP             4 A     ANP     0 **** ANP A 501
