@<TRIPOS>MOLECULE
3alm_FAD_1_ligand
   84    89     1     0     0
SMALL
NO_CHARGES


@<TRIPOS>ATOM
     1 PA          69.4140    63.2790   -13.4000 P.3          1 FAD380   0.0000
     2 O1A         69.1660    64.0370   -14.6420 O.co2        1 FAD380   0.0000
     3 O2A         69.4330    63.9450   -12.0400 O.co2        1 FAD380  -1.0000
     4 O5B         68.2850    62.0370   -13.4300 O.3          1 FAD380   0.0000
     5 C5B         68.2790    61.0630   -12.4110 C.3          1 FAD380   0.0000
     6 C4B         66.8160    60.5060   -12.4870 C.3          1 FAD380   0.0000
     7 O4B         66.8380    59.5440   -11.4160 O.3          1 FAD380   0.0000
     8 C3B         65.6940    61.5480   -12.1930 C.3          1 FAD380   0.0000
     9 O3B         64.6330    61.2730   -13.1190 O.3          1 FAD380   0.0000
    10 C2B         65.2970    61.2010   -10.7600 C.3          1 FAD380   0.0000
    11 O2B         63.8690    61.3640   -10.5190 O.3          1 FAD380   0.0000
    12 C1B         65.6000    59.7070   -10.6840 C.3          1 FAD380   0.0000
    13 N9A         65.9040    59.1970    -9.3350 N.pl3        1 FAD380   0.0000
    14 C8A         66.4320    59.8720    -8.2940 C.2          1 FAD380   0.0000
    15 N7A         66.5730    59.0420    -7.2260 N.2          1 FAD380   0.0000
    16 C5A         66.0970    57.8370    -7.6530 C.ar         1 FAD380   0.0000
    17 C6A         65.9740    56.6070    -7.0600 C.ar         1 FAD380   0.0000
    18 N6A         66.3860    56.4550    -5.7990 N.pl3        1 FAD380   0.0000
    19 N1A         65.4750    55.5650    -7.7260 N.ar         1 FAD380   0.0000
    20 C2A         65.0900    55.6570    -8.9920 C.ar         1 FAD380   0.0000
    21 N3A         65.1930    56.8200    -9.6070 N.ar         1 FAD380   0.0000
    22 C4A         65.7110    57.9190    -8.9660 C.ar         1 FAD380   0.0000
    23 N1          74.7490    69.2100   -19.1340 N.2          1 FAD380   0.0000
    24 C2          74.8780    69.2890   -20.4590 C.2          1 FAD380   0.0000
    25 O2          75.3230    68.3070   -21.0630 O.2          1 FAD380   0.0000
    26 N3          74.5020    70.4390   -21.1770 N.pl3        1 FAD380   0.0000
    27 C4          74.0500    71.4910   -20.4900 C.2          1 FAD380   0.0000
    28 O4          73.6900    72.5040   -21.1060 O.2          1 FAD380   0.0000
    29 C4X         73.9460    71.4520   -19.1130 C.2          1 FAD380   0.0000
    30 N5          73.4710    72.5360   -18.4530 N.2          1 FAD380   0.0000
    31 C5X         73.4910    72.5680   -17.0730 C.ar         1 FAD380   0.0000
    32 C6          73.1050    73.7540   -16.3680 C.ar         1 FAD380   0.0000
    33 C7          73.0470    73.7600   -14.9880 C.ar         1 FAD380   0.0000
    34 C7M         72.6550    75.0560   -14.2410 C.3          1 FAD380   0.0000
    35 C8          73.4160    72.5810   -14.2850 C.ar         1 FAD380   0.0000
    36 C8M         73.3550    72.4400   -12.7220 C.3          1 FAD380   0.0000
    37 C9          73.7180    71.4110   -14.9570 C.ar         1 FAD380   0.0000
    38 C9A         73.7490    71.3990   -16.3720 C.ar         1 FAD380   0.0000
    39 N10         74.1120    70.2120   -17.0510 N.pl3        1 FAD380   0.0000
    40 C10         74.2650    70.2950   -18.4320 C.2          1 FAD380   0.0000
    41 C1'         74.3230    68.9080   -16.3540 C.3          1 FAD380   0.0000
    42 C2'         73.0900    68.0030   -16.4340 C.3          1 FAD380   0.0000
    43 O2'         71.9310    68.6910   -15.9480 O.3          1 FAD380   0.0000
    44 C3'         73.2810    66.7450   -15.5670 C.3          1 FAD380   0.0000
    45 O3'         74.6660    66.3450   -15.6290 O.3          1 FAD380   0.0000
    46 C4'         72.4590    65.6070   -16.1250 C.3          1 FAD380   0.0000
    47 O4'         71.0440    65.9340   -16.2200 O.3          1 FAD380   0.0000
    48 C5'         72.5530    64.4190   -15.1940 C.3          1 FAD380   0.0000
    49 O5'         71.9360    63.2480   -15.7720 O.3          1 FAD380   0.0000
    50 P           71.6140    62.0100   -14.7940 P.3          1 FAD380   0.0000
    51 O1P         70.9510    61.0440   -15.6560 O.co2        1 FAD380   0.0000
    52 O2P         73.0020    61.6060   -14.2850 O.co2        1 FAD380  -1.0000
    53 O3P         70.8670    62.5250   -13.5140 O.3          1 FAD380   0.0000
    54 H5B1        68.4642    61.4727   -11.5178 H            1 FAD380   0.0000
    55 H5B2        68.9498    60.3442   -12.5936 H            1 FAD380   0.0000
    56 H4B         66.6560    60.0535   -13.3643 H            1 FAD380   0.0000
    57 H3B         66.0259    62.4880   -12.2723 H            1 FAD380   0.0000
    58 H5          64.3012    60.3402   -12.9783 H            1 FAD380   0.0000
    59 H2B         65.8394    61.7168   -10.0968 H            1 FAD380   0.0000
    60 H7          63.3566    60.7639   -11.1333 H            1 FAD380   0.0000
    61 H1B         64.8662    59.1750   -11.1065 H            1 FAD380   0.0000
    62 H8A         66.6829    60.8400    -8.3056 H            1 FAD380   0.0000
    63 H6A1        66.3042    55.5652    -5.3501 H            1 FAD380   0.0000
    64 H6A2        66.7764    57.2310    -5.3036 H            1 FAD380   0.0000
    65 H2A         64.7277    54.8583    -9.4724 H            1 FAD380   0.0000
    66 H13         74.5713    70.4677   -22.1742 H            1 FAD380   0.0000
    67 H14         72.8761    74.5829   -16.8784 H            1 FAD380   0.0000
    68 H7M1        72.6617    74.8876   -13.2553 H            1 FAD380   0.0000
    69 H7M2        73.3107    75.7784   -14.4602 H            1 FAD380   0.0000
    70 H7M3        71.7390    75.3400   -14.5244 H            1 FAD380   0.0000
    71 H8M1        73.6612    71.5255   -12.4576 H            1 FAD380   0.0000
    72 H8M2        73.9501    73.1252   -12.3020 H            1 FAD380   0.0000
    73 H8M3        72.4148    72.5796   -12.4112 H            1 FAD380   0.0000
    74 H21         73.9141    70.5751   -14.4444 H            1 FAD380   0.0000
    75 H1'1        74.5294    69.0868   -15.3920 H            1 FAD380   0.0000
    76 H1'2        75.0962    68.4372   -16.7789 H            1 FAD380   0.0000
    77 H2'         72.9397    67.7309   -17.3844 H            1 FAD380   0.0000
    78 H25         71.8378    68.5337   -14.9649 H            1 FAD380   0.0000
    79 H3'         73.0164    66.9325   -14.6211 H            1 FAD380   0.0000
    80 H27         74.9221    65.8966   -14.7726 H            1 FAD380   0.0000
    81 H4'         72.8061    65.3538   -17.0280 H            1 FAD380   0.0000
    82 H29         70.5158    65.2941   -15.6618 H            1 FAD380   0.0000
    83 H5'1        72.0903    64.6406   -14.3356 H            1 FAD380   0.0000
    84 H5'2        73.5167    64.2232   -15.0124 H            1 FAD380   0.0000
@<TRIPOS>BOND
     1    1    2      ar
     2    1    3      ar
     3    1    4       1
     4    1   53       1
     5    4    5       1
     6    5    6       1
     7    6    7       1
     8    6    8       1
     9    7   12       1
    10    8    9       1
    11    8   10       1
    12   10   11       1
    13   10   12       1
    14   12   13       1
    15   13   14       1
    16   13   22       1
    17   14   15       2
    18   15   16       1
    19   16   17      ar
    20   16   22      ar
    21   17   18       1
    22   17   19      ar
    23   19   20      ar
    24   20   21      ar
    25   21   22      ar
    26   23   24       1
    27   23   40       2
    28   24   25       2
    29   24   26       1
    30   26   27       1
    31   27   28       2
    32   27   29       1
    33   29   30       2
    34   29   40       1
    35   30   31       1
    36   31   32      ar
    37   31   38      ar
    38   32   33      ar
    39   33   34       1
    40   33   35      ar
    41   35   36       1
    42   35   37      ar
    43   37   38      ar
    44   38   39       1
    45   39   40       1
    46   39   41       1
    47   41   42       1
    48   42   43       1
    49   42   44       1
    50   44   45       1
    51   44   46       1
    52   46   47       1
    53   46   48       1
    54   48   49       1
    55   49   50       1
    56   50   51      ar
    57   50   52      ar
    58   50   53       1
    59   48   84       1
    60    5   54       1
    61    5   55       1
    62    6   56       1
    63    8   57       1
    64    9   58       1
    65   10   59       1
    66   11   60       1
    67   12   61       1
    68   14   62       1
    69   18   63       1
    70   18   64       1
    71   20   65       1
    72   26   66       1
    73   32   67       1
    74   34   68       1
    75   34   69       1
    76   34   70       1
    77   36   71       1
    78   36   72       1
    79   36   73       1
    80   37   74       1
    81   41   75       1
    82   41   76       1
    83   42   77       1
    84   43   78       1
    85   44   79       1
    86   45   80       1
    87   46   81       1
    88   47   82       1
    89   48   83       1
@<TRIPOS>SUBSTRUCTURE
     1 FAD380      1 GROUP             4 A     FAD     0 **** FAD A 380
