@<TRIPOS>MOLECULE
1wy7_SAH_2_ligand
   46    48     1     0     0
SMALL
NO_CHARGES


@<TRIPOS>ATOM
     1 N           60.1120    18.7940    43.9170 N.4          1 SAH1002   1.0000
     2 CA          61.3730    19.4280    43.5140 C.3          1 SAH1002   0.0000
     3 CB          61.3790    20.8400    44.0810 C.3          1 SAH1002   0.0000
     4 CG          61.7170    21.8350    43.0220 C.3          1 SAH1002   0.0000
     5 SD          61.7370    23.6390    43.3670 S.3          1 SAH1002   0.0000
     6 C           62.5820    18.6130    43.9660 C.2          1 SAH1002   0.0000
     7 O           62.4180    17.4320    44.3960 O.co2        1 SAH1002   0.0000
     8 OXT         63.6900    19.2180    43.9450 O.co2        1 SAH1002  -1.0000
     9 C5'         63.1340    23.8890    44.4170 C.3          1 SAH1002   0.0000
    10 C4'         62.8810    24.2640    45.8820 C.3          1 SAH1002   0.0000
    11 O4'         63.8180    25.2990    46.2580 O.3          1 SAH1002   0.0000
    12 C3'         61.5340    24.9310    46.1990 C.3          1 SAH1002   0.0000
    13 O3'         60.7960    23.8740    46.8670 O.3          1 SAH1002   0.0000
    14 C2'         61.8370    26.0340    47.2210 C.3          1 SAH1002   0.0000
    15 O2'         61.0520    26.2170    48.3770 O.3          1 SAH1002   0.0000
    16 C1'         63.3400    25.8230    47.4670 C.3          1 SAH1002   0.0000
    17 N9          64.0820    27.0280    47.7940 N.pl3        1 SAH1002   0.0000
    18 C8          64.0860    28.2700    47.1950 C.2          1 SAH1002   0.0000
    19 N7          64.9080    29.1190    47.7580 N.2          1 SAH1002   0.0000
    20 C5          65.4860    28.3990    48.7910 C.ar         1 SAH1002   0.0000
    21 C6          66.4670    28.7210    49.7720 C.ar         1 SAH1002   0.0000
    22 N6          67.0400    29.9400    49.8360 N.pl3        1 SAH1002   0.0000
    23 N1          66.8490    27.7720    50.6890 N.ar         1 SAH1002   0.0000
    24 C2          66.2700    26.5470    50.6140 C.ar         1 SAH1002   0.0000
    25 N3          65.3330    26.1200    49.7300 N.ar         1 SAH1002   0.0000
    26 C4          64.9830    27.1060    48.8310 C.ar         1 SAH1002   0.0000
    27 H1          59.8388    18.1258    43.2250 H            1 SAH1002   0.0000
    28 H2          60.2368    18.3324    44.7952 H            1 SAH1002   0.0000
    29 HA          61.3898    19.4893    42.5160 H            1 SAH1002   0.0000
    30 HB1         62.0583    20.8965    44.8127 H            1 SAH1002   0.0000
    31 HB2         60.4734    21.0489    44.4500 H            1 SAH1002   0.0000
    32 HG1         61.0561    21.6967    42.2844 H            1 SAH1002   0.0000
    33 HG2         62.6332    21.6002    42.6971 H            1 SAH1002   0.0000
    34 H5'1        63.6809    24.6225    44.0133 H            1 SAH1002   0.0000
    35 H5'2        63.6621    23.0398    44.4152 H            1 SAH1002   0.0000
    36 H4'         63.0086    23.4617    46.4652 H            1 SAH1002   0.0000
    37 H3'         61.0687    25.2742    45.3831 H            1 SAH1002   0.0000
    38 H12         61.2888    23.5923    47.6903 H            1 SAH1002   0.0000
    39 H2'         61.7683    26.8931    46.7138 H            1 SAH1002   0.0000
    40 H14         61.4259    25.6676    49.1242 H            1 SAH1002   0.0000
    41 H1'         63.4658    25.1481    48.1941 H            1 SAH1002   0.0000
    42 H16         63.5158    28.5000    46.4064 H            1 SAH1002   0.0000
    43 H17         67.7259    30.1339    50.5374 H            1 SAH1002   0.0000
    44 H18         66.7790    30.6501    49.1821 H            1 SAH1002   0.0000
    45 H19         66.5704    25.8772    51.2930 H            1 SAH1002   0.0000
    46 H20         59.4013    19.4919    44.0053 H            1 SAH1002   0.0000
@<TRIPOS>BOND
     1    1    2       1
     2    2    3       1
     3    2    6       1
     4    3    4       1
     5    4    5       1
     6    5    9       1
     7    6    7      ar
     8    6    8      ar
     9    9   10       1
    10   10   11       1
    11   10   12       1
    12   11   16       1
    13   12   13       1
    14   12   14       1
    15   14   15       1
    16   14   16       1
    17   16   17       1
    18   17   18       1
    19   17   26       1
    20   18   19       2
    21   19   20       1
    22   20   21      ar
    23   20   26      ar
    24   21   22       1
    25   21   23      ar
    26   23   24      ar
    27   24   25      ar
    28   25   26      ar
    29    1   27       1
    30    1   28       1
    31    2   29       1
    32    3   30       1
    33    3   31       1
    34    4   32       1
    35    4   33       1
    36    1   46       1
    37    9   34       1
    38    9   35       1
    39   10   36       1
    40   12   37       1
    41   13   38       1
    42   14   39       1
    43   15   40       1
    44   16   41       1
    45   18   42       1
    46   22   43       1
    47   22   44       1
    48   24   45       1
@<TRIPOS>SUBSTRUCTURE
     1 SAH1002     1 GROUP             4 B     SAH     0 **** SAH B1002
