@<TRIPOS>MOLECULE
1qor_NDP_1_ligand
   73    77     1     0     0
SMALL
NO_CHARGES


@<TRIPOS>ATOM
     1 PA          57.0770    55.4310   -11.2470 P.3          1 NDP350   0.0000
     2 O1A         57.8560    56.6940   -11.3120 O.co2        1 NDP350   0.0000
     3 O2A         57.5950    54.3210   -10.4040 O.co2        1 NDP350  -1.0000
     4 O5B         56.7310    54.9220   -12.6700 O.3          1 NDP350   0.0000
     5 C5B         56.2130    53.6430   -12.9250 C.3          1 NDP350   0.0000
     6 C4B         57.3500    52.7160   -13.2320 C.3          1 NDP350   0.0000
     7 O4B         56.7130    51.4460   -13.1910 O.3          1 NDP350   0.0000
     8 C3B         57.9790    52.8080   -14.6290 C.3          1 NDP350   0.0000
     9 O3B         59.0050    53.8360   -14.6340 O.3          1 NDP350   0.0000
    10 C2B         58.3720    51.3650   -14.9080 C.3          1 NDP350   0.0000
    11 O2B         59.7180    51.1840   -14.4870 O.3          1 NDP350   0.0000
    12 C1B         57.3450    50.5060   -14.0480 C.3          1 NDP350   0.0000
    13 N9A         56.5290    49.7970   -15.0460 N.pl3        1 NDP350   0.0000
    14 C8A         56.4790    48.4840   -15.2740 C.2          1 NDP350   0.0000
    15 N7A         55.6530    48.2320   -16.2970 N.2          1 NDP350   0.0000
    16 C5A         55.2160    49.4140   -16.6710 C.ar         1 NDP350   0.0000
    17 C6A         54.3490    49.6470   -17.7310 C.ar         1 NDP350   0.0000
    18 N6A         53.8530    48.6760   -18.4880 N.pl3        1 NDP350   0.0000
    19 N1A         54.0460    50.9260   -17.9570 N.ar         1 NDP350   0.0000
    20 C2A         54.5430    51.9500   -17.2090 C.ar         1 NDP350   0.0000
    21 N3A         55.3800    51.7130   -16.1960 N.ar         1 NDP350   0.0000
    22 C4A         55.7370    50.4250   -15.9190 C.ar         1 NDP350   0.0000
    23 O3          55.7060    55.9040   -10.5950 O.3          1 NDP350   0.0000
    24 PN          55.2420    56.4020    -9.1690 P.3          1 NDP350   0.0000
    25 O1N         56.3880    56.4860    -8.1930 O.co2        1 NDP350   0.0000
    26 O2N         54.3450    57.6050    -9.3520 O.co2        1 NDP350  -1.0000
    27 O5D         54.2820    55.1260    -8.7660 O.3          1 NDP350   0.0000
    28 C5D         54.7110    53.7730    -8.7030 C.3          1 NDP350   0.0000
    29 C4D         53.5530    52.8500    -8.5180 C.3          1 NDP350   0.0000
    30 O4D         53.0140    52.9810    -7.1830 O.3          1 NDP350   0.0000
    31 C3D         52.4000    53.1150    -9.4790 C.3          1 NDP350   0.0000
    32 O3D         51.8550    51.8760    -9.9430 O.3          1 NDP350   0.0000
    33 C2D         51.4070    53.8720    -8.5700 C.3          1 NDP350   0.0000
    34 O2D         50.0890    53.7820    -9.0500 O.3          1 NDP350   0.0000
    35 C1D         51.5440    53.1700    -7.2500 C.3          1 NDP350   0.0000
    36 N1N         51.3040    53.8880    -5.9690 N.ar         1 NDP350   1.0000
    37 C2N         50.5090    53.3100    -5.0110 C.ar         1 NDP350   0.0000
    38 C3N         50.3090    53.9910    -3.8230 C.ar         1 NDP350   0.0000
    39 C7N         49.4670    53.3790    -2.7110 C.2          1 NDP350   0.0000
    40 O7N         49.3200    53.9530    -1.6380 O.2          1 NDP350   0.0000
    41 N7N         48.9360    52.2100    -3.0020 N.am         1 NDP350   0.0000
    42 C4N         50.8930    55.2230    -3.5810 C.ar         1 NDP350   0.0000
    43 C5N         51.7040    55.7960    -4.5690 C.ar         1 NDP350   0.0000
    44 C6N         51.8930    55.1190    -5.7620 C.ar         1 NDP350   0.0000
    45 P2B         60.6960    50.0450   -15.2070 P.3          1 NDP350   0.0000
    46 O1X         61.8870    49.9800   -14.3330 O.co2        1 NDP350   0.0000
    47 O2X         59.9170    48.8000   -15.2120 O.co2        1 NDP350  -1.0000
    48 O3X         60.9280    50.5980   -16.5550 O.co2        1 NDP350  -1.0000
    49 H5B1        55.5903    53.6819   -13.7065 H            1 NDP350   0.0000
    50 H5B2        55.7184    53.3139   -12.1206 H            1 NDP350   0.0000
    51 H4B         58.0545    52.7784   -12.5250 H            1 NDP350   0.0000
    52 H3B         57.2660    53.0715   -15.2787 H            1 NDP350   0.0000
    53 H5          58.7682    54.5465   -13.9713 H            1 NDP350   0.0000
    54 H2B         58.2767    51.1563   -15.8813 H            1 NDP350   0.0000
    55 H1B         57.8484    49.8404   -13.4971 H            1 NDP350   0.0000
    56 H8A         56.9830    47.7914   -14.7581 H            1 NDP350   0.0000
    57 H6A1        53.2319    48.8962   -19.2401 H            1 NDP350   0.0000
    58 H6A2        54.1005    47.7243   -18.3062 H            1 NDP350   0.0000
    59 H2A         54.2779    52.8906   -17.4210 H            1 NDP350   0.0000
    60 H5D1        55.3405    53.6655    -7.9334 H            1 NDP350   0.0000
    61 H5D2        55.1818    53.5398    -9.5538 H            1 NDP350   0.0000
    62 H4D         53.8682    51.9097    -8.6462 H            1 NDP350   0.0000
    63 H3D         52.6944    53.6872   -10.2445 H            1 NDP350   0.0000
    64 H16         52.3324    51.5925   -10.7747 H            1 NDP350   0.0000
    65 H2D         51.6790    54.8303    -8.4825 H            1 NDP350   0.0000
    66 H18         50.0764    53.2391    -9.8897 H            1 NDP350   0.0000
    67 H1D         51.0698    52.2897    -7.2615 H            1 NDP350   0.0000
    68 H2N         50.0845    52.4182    -5.1677 H            1 NDP350   0.0000
    69 H7N1        48.3681    51.7371    -2.3283 H            1 NDP350   0.0000
    70 H7N2        49.1005    51.7949    -3.8968 H            1 NDP350   0.0000
    71 H4N         50.7381    55.6965    -2.7140 H            1 NDP350   0.0000
    72 H5N         52.1407    56.6823    -4.4148 H            1 NDP350   0.0000
    73 H6N         52.4602    55.5248    -6.4787 H            1 NDP350   0.0000
@<TRIPOS>BOND
     1    1    2      ar
     2    1    3      ar
     3    1    4       1
     4    1   23       1
     5    4    5       1
     6    5    6       1
     7    6    7       1
     8    6    8       1
     9    7   12       1
    10    8    9       1
    11    8   10       1
    12   10   11       1
    13   10   12       1
    14   11   45       1
    15   12   13       1
    16   13   14       1
    17   13   22       1
    18   14   15       2
    19   15   16       1
    20   16   17      ar
    21   16   22      ar
    22   17   18       1
    23   17   19      ar
    24   19   20      ar
    25   20   21      ar
    26   21   22      ar
    27   23   24       1
    28   24   25      ar
    29   24   26      ar
    30   24   27       1
    31   27   28       1
    32   28   29       1
    33   29   30       1
    34   29   31       1
    35   30   35       1
    36   31   32       1
    37   31   33       1
    38   33   34       1
    39   33   35       1
    40   35   36       1
    41   36   37      ar
    42   36   44      ar
    43   37   38      ar
    44   38   39       1
    45   38   42      ar
    46   39   40       2
    47   39   41      am
    48   42   43      ar
    49   43   44      ar
    50   45   46      ar
    51   45   47      ar
    52   45   48      ar
    53   43   72       1
    54    5   49       1
    55    5   50       1
    56    6   51       1
    57    8   52       1
    58    9   53       1
    59   10   54       1
    60   12   55       1
    61   14   56       1
    62   18   57       1
    63   18   58       1
    64   20   59       1
    65   44   73       1
    66   28   60       1
    67   28   61       1
    68   29   62       1
    69   31   63       1
    70   32   64       1
    71   33   65       1
    72   34   66       1
    73   35   67       1
    74   37   68       1
    75   41   69       1
    76   41   70       1
    77   42   71       1
@<TRIPOS>SUBSTRUCTURE
     1 NDP350      1 GROUP             4 A     NDP     0 **** NDP A 350
