@<TRIPOS>MOLECULE
4fgc_PQ0_2_ligand
   18    19     1     0     0
SMALL
NO_CHARGES


@<TRIPOS>ATOM
     1 N1           2.8840    20.3010    15.9580 N.pl3        1 PQ0201   0.0000
     2 C2           2.1360    21.1030    16.7620 C.2          1 PQ0201   0.0000
     3 N3           0.8170    21.3070    16.5460 N.2          1 PQ0201   0.0000
     4 C4           0.2630    20.6940    15.4810 C.2          1 PQ0201   0.0000
     5 C5           0.9750    19.8710    14.6170 C.2          1 PQ0201   0.0000
     6 C6           2.3560    19.6820    14.8730 C.2          1 PQ0201   0.0000
     7 O6           3.1910    18.8970    14.1210 O.2          1 PQ0201   0.0000
     8 C7          -0.0370    19.5070    13.7200 C.2          1 PQ0201   0.0000
     9 C10          0.0180    18.7000    12.6590 C.1          1 PQ0201   0.0000
    10 N11          0.0730    17.9770    11.7410 N.1          1 PQ0201   0.0000
    11 C8          -1.2580    20.0530    14.0160 C.2          1 PQ0201   0.0000
    12 N9          -1.0370    20.7890    15.1290 N.pl3        1 PQ0201   0.0000
    13 N2           2.7160    21.6960    17.8220 N.pl3        1 PQ0201   0.0000
    14 H1           3.8509    20.1637    16.1729 H            1 PQ0201   0.0000
    15 H2          -2.1186    19.9342    13.5208 H            1 PQ0201   0.0000
    16 H3          -1.7295    21.3213    15.6160 H            1 PQ0201   0.0000
    17 H4           2.1766    22.2881    18.4208 H            1 PQ0201   0.0000
    18 H5           3.6863    21.5445    18.0107 H            1 PQ0201   0.0000
@<TRIPOS>BOND
     1    1    2       1
     2    1    6       1
     3    2    3       2
     4    2   13       1
     5    3    4       1
     6    4    5       2
     7    4   12       1
     8    5    6       1
     9    5    8       1
    10    6    7       2
    11    8    9       1
    12    8   11       2
    13    9   10       3
    14   11   12       1
    15    1   14       1
    16   11   15       1
    17   12   16       1
    18   13   17       1
    19   13   18       1
@<TRIPOS>SUBSTRUCTURE
     1 PQ0201      1 GROUP             4 C     PQ0     0 **** PQ0 C 201
