@<TRIPOS>MOLECULE
1s60_COA_1_ligand
   80    82     1     0     0
SMALL
NO_CHARGES


@<TRIPOS>ATOM
     1 N1A          7.2110    54.7490    37.0970 N.ar         1 COA600   0.0000
     2 C2A          7.2120    55.4430    35.9100 C.ar         1 COA600   0.0000
     3 N3A          6.2500    55.4840    34.9710 N.ar         1 COA600   0.0000
     4 C4A          5.1150    54.7200    35.2780 C.ar         1 COA600   0.0000
     5 C5A          5.0320    53.9750    36.4850 C.ar         1 COA600   0.0000
     6 C6A          6.1150    53.9880    37.4030 C.ar         1 COA600   0.0000
     7 N6A          5.9620    53.2340    38.5460 N.pl3        1 COA600   0.0000
     8 N7A          3.8470    53.2820    36.5870 N.2          1 COA600   0.0000
     9 C8A          3.1920    53.5660    35.5020 C.2          1 COA600   0.0000
    10 N9A          3.9110    54.3890    34.7080 N.pl3        1 COA600   0.0000
    11 C1B          3.4470    54.8570    33.4200 C.3          1 COA600   0.0000
    12 C2B          3.2040    53.6790    32.4670 C.3          1 COA600   0.0000
    13 O2B          4.4260    53.2050    31.8590 O.3          1 COA600   0.0000
    14 C3B          2.3790    54.3790    31.4660 C.3          1 COA600   0.0000
    15 O3B          1.8660    53.5370    30.4950 O.3          1 COA600   0.0000
    16 P3B          1.8860    54.0570    28.9220 P.3          1 COA600   0.0000
    17 O7A          2.5320    55.4380    28.9130 O.co2        1 COA600   0.0000
    18 O8A          0.4400    54.0500    28.3880 O.co2        1 COA600  -1.0000
    19 O9A          2.7910    53.0360    28.2750 O.co2        1 COA600  -1.0000
    20 C4B          1.3750    55.0970    32.3790 C.3          1 COA600   0.0000
    21 O4B          2.1730    55.4770    33.5140 O.3          1 COA600   0.0000
    22 C5B          0.0660    54.3990    32.8500 C.3          1 COA600   0.0000
    23 O5B          0.3620    53.4760    33.9360 O.3          1 COA600   0.0000
    24 P1A         -0.6680    52.3260    34.5540 P.3          1 COA600   0.0000
    25 O1A         -1.9980    52.2950    33.8770 O.co2        1 COA600   0.0000
    26 O2A          0.1050    51.0540    34.4900 O.co2        1 COA600  -1.0000
    27 O3A         -0.8400    52.7540    36.0710 O.3          1 COA600   0.0000
    28 P2A         -0.4820    51.9390    37.3780 P.3          1 COA600   0.0000
    29 O4A         -1.1460    50.6080    37.3920 O.co2        1 COA600   0.0000
    30 O5A          0.9750    51.7270    37.5490 O.co2        1 COA600  -1.0000
    31 O6A         -0.8480    52.8290    38.7200 O.3          1 COA600   0.0000
    32 CBP         -0.5840    54.7730    40.3290 C.3          1 COA600   0.0000
    33 CCP         -0.2950    54.1570    38.9160 C.3          1 COA600   0.0000
    34 CDP         -0.3340    56.2790    40.2220 C.3          1 COA600   0.0000
    35 CEP         -2.1050    54.6110    40.5920 C.3          1 COA600   0.0000
    36 CAP          0.3480    54.2340    41.5160 C.3          1 COA600   0.0000
    37 OAP          1.3400    53.3330    41.0520 O.3          1 COA600   0.0000
    38 C9P         -0.3500    53.6150    42.7420 C.2          1 COA600   0.0000
    39 O9P         -1.0470    52.6650    42.5890 O.2          1 COA600   0.0000
    40 N8P          0.2470    53.8560    43.9660 N.am         1 COA600   0.0000
    41 C7P          0.2830    55.1280    44.7000 C.3          1 COA600   0.0000
    42 C6P         -0.9680    56.0250    44.6090 C.3          1 COA600   0.0000
    43 C5P         -0.6930    57.3910    43.9870 C.2          1 COA600   0.0000
    44 O5P          0.3930    57.7220    43.5850 O.2          1 COA600   0.0000
    45 N4P         -1.7970    58.1820    43.8230 N.am         1 COA600   0.0000
    46 C3P         -1.8490    59.3180    42.8450 C.3          1 COA600   0.0000
    47 C2P         -3.0270    60.3220    43.0890 C.3          1 COA600   0.0000
    48 S1P         -3.9170    59.9560    44.6540 S.3          1 COA600   0.0000
    49 H2A          8.0307    55.9853    35.7212 H            1 COA600   0.0000
    50 H6A1         5.1246    52.7063    38.6885 H            1 COA600   0.0000
    51 H6A2         6.6883    53.2145    39.2331 H            1 COA600   0.0000
    52 H8A          2.2788    53.2219    35.2839 H            1 COA600   0.0000
    53 H1B          4.1110    55.4908    33.0232 H            1 COA600   0.0000
    54 H2B          2.6995    52.9392    32.9122 H            1 COA600   0.0000
    55 H7           4.2198    52.4403    31.2486 H            1 COA600   0.0000
    56 H3B          2.9463    55.0693    31.0169 H            1 COA600   0.0000
    57 H4B          1.1065    55.9404    31.9137 H            1 COA600   0.0000
    58 H5B1        -0.3346    53.8942    32.0853 H            1 COA600   0.0000
    59 H5B2        -0.5823    55.0902    33.1693 H            1 COA600   0.0000
    60 HCP1        -0.6850    54.7642    38.2237 H            1 COA600   0.0000
    61 HCP2         0.6961    54.1050    38.7936 H            1 COA600   0.0000
    62 HDP1        -0.5086    56.7096    41.1075 H            1 COA600   0.0000
    63 HDP2         0.6157    56.4410    39.9540 H            1 COA600   0.0000
    64 HDP3        -0.9458    56.6704    39.5346 H            1 COA600   0.0000
    65 HEP1        -2.3310    54.9935    41.4879 H            1 COA600   0.0000
    66 HEP2        -2.6191    55.0947    39.8837 H            1 COA600   0.0000
    67 HEP3        -2.3449    53.6404    40.5738 H            1 COA600   0.0000
    68 HAP          0.8432    55.0325    41.8582 H            1 COA600   0.0000
    69 H21          0.9979    52.8452    40.2489 H            1 COA600   0.0000
    70 H8P          0.7043    53.0792    44.3989 H            1 COA600   0.0000
    71 H7P1         1.0581    55.6552    44.3518 H            1 COA600   0.0000
    72 H7P2         0.4317    54.9149    45.6656 H            1 COA600   0.0000
    73 H6P1        -1.3259    56.1638    45.5324 H            1 COA600   0.0000
    74 H6P2        -1.6540    55.5561    44.0526 H            1 COA600   0.0000
    75 H4P         -2.6058    57.9944    44.3803 H            1 COA600   0.0000
    76 H3P1        -1.9475    58.9364    41.9259 H            1 COA600   0.0000
    77 H3P2        -0.9884    59.8236    42.9055 H            1 COA600   0.0000
    78 H2P1        -3.6712    60.2574    42.3269 H            1 COA600   0.0000
    79 H2P2        -2.6576    61.2501    43.1355 H            1 COA600   0.0000
    80 H1P         -4.2893    60.8037    45.0319 H            1 COA600   0.0000
@<TRIPOS>BOND
     1    1    2      ar
     2    1    6      ar
     3    2    3      ar
     4    3    4      ar
     5    4    5      ar
     6    4   10       1
     7    5    6      ar
     8    5    8       1
     9    6    7       1
    10    8    9       2
    11    9   10       1
    12   10   11       1
    13   11   12       1
    14   11   21       1
    15   12   13       1
    16   12   14       1
    17   14   15       1
    18   14   20       1
    19   15   16       1
    20   16   17      ar
    21   16   18      ar
    22   16   19      ar
    23   20   21       1
    24   20   22       1
    25   22   23       1
    26   23   24       1
    27   24   25      ar
    28   24   26      ar
    29   24   27       1
    30   27   28       1
    31   28   29      ar
    32   28   30      ar
    33   28   31       1
    34   31   33       1
    35   32   33       1
    36   32   34       1
    37   32   35       1
    38   32   36       1
    39   36   37       1
    40   36   38       1
    41   38   39       2
    42   38   40      am
    43   40   41       1
    44   41   42       1
    45   42   43       1
    46   43   44       2
    47   43   45      am
    48   45   46       1
    49   46   47       1
    50   47   48       1
    51    2   49       1
    52    7   50       1
    53    7   51       1
    54    9   52       1
    55   11   53       1
    56   12   54       1
    57   13   55       1
    58   14   56       1
    59   48   80       1
    60   47   79       1
    61   20   57       1
    62   22   58       1
    63   22   59       1
    64   47   78       1
    65   46   77       1
    66   33   60       1
    67   33   61       1
    68   34   62       1
    69   34   63       1
    70   34   64       1
    71   35   65       1
    72   35   66       1
    73   35   67       1
    74   36   68       1
    75   37   69       1
    76   40   70       1
    77   41   71       1
    78   41   72       1
    79   42   73       1
    80   42   74       1
    81   45   75       1
    82   46   76       1
@<TRIPOS>SUBSTRUCTURE
     1 COA600      1 GROUP             4 A     COA     0 **** COA A 600
