@<TRIPOS>MOLECULE
2xf3_J01_1_ligand
   22    23     1     0     0
SMALL
NO_CHARGES


@<TRIPOS>ATOM
     1 O2           9.5940     7.2320    73.1200 O.2          1 J01500   0.0000
     2 C5           8.6100     6.5270    72.9510 C.2          1 J01500   0.0000
     3 C4           8.4690     5.2020    72.2750 C.3          1 J01500   0.0000
     4 C3           7.0970     5.2470    72.9520 C.3          1 J01500   0.0000
     5 N1           7.2750     6.6660    73.3760 N.am         1 J01500   0.0000
     6 O1           7.1100     4.4300    74.1230 O.3          1 J01500   0.0000
     7 C1           7.1160     5.3390    75.2540 C.2          1 J01500   0.0000
     8 C2           7.0750     6.7730    74.8240 C.3          1 J01500   0.0000
     9 C8           5.7550     7.4550    75.0920 C.2          1 J01500   0.0000
    10 O5           5.5450     7.9190    76.2310 O.co2        1 J01500   0.0000
    11 O4           4.9110     7.5540    74.1700 O.co2        1 J01500  -1.0000
    12 C6           7.1630     4.9470    76.5430 C.2          1 J01500   0.0000
    13 C7           7.2170     3.4840    76.9340 C.3          1 J01500   0.0000
    14 O3           6.2710     3.2130    77.9800 O.3          1 J01500   0.0000
    15 H1           9.0880     4.4830    72.5911 H            1 J01500   0.0000
    16 H2           8.4629     5.2209    71.2752 H            1 J01500   0.0000
    17 H3           6.3229     5.0875    72.3394 H            1 J01500   0.0000
    18 H4           7.8245     7.2852    75.2434 H            1 J01500   0.0000
    19 H5           7.1622     5.6419    77.2621 H            1 J01500   0.0000
    20 H6           8.1374     3.2622    77.2559 H            1 J01500   0.0000
    21 H7           6.9980     2.9211    76.1370 H            1 J01500   0.0000
    22 H8           5.9523     2.2682    77.9046 H            1 J01500   0.0000
@<TRIPOS>BOND
     1    1    2       2
     2    2    3       1
     3    2    5      am
     4    3    4       1
     5    4    5       1
     6    4    6       1
     7    5    8       1
     8    6    7       1
     9    7    8       1
    10    7   12       2
    11    8    9       1
    12    9   10      ar
    13    9   11      ar
    14   12   13       1
    15   13   14       1
    16    3   15       1
    17    3   16       1
    18    4   17       1
    19    8   18       1
    20   14   22       1
    21   12   19       1
    22   13   20       1
    23   13   21       1
@<TRIPOS>SUBSTRUCTURE
     1 J01500      1 GROUP             4 A     J01     0 **** J01 A 500
