@<TRIPOS>MOLECULE
1odi_ADN_3_ligand
   32    34     1     0     0
SMALL
NO_CHARGES


@<TRIPOS>ATOM
     1 O5'          8.0520  -125.7320  -137.6830 O.3          1 ADN1238   0.0000
     2 C5'          8.6730  -124.5600  -138.1730 C.3          1 ADN1238   0.0000
     3 C4'          8.9780  -124.8830  -139.6420 C.3          1 ADN1238   0.0000
     4 O4'          7.7880  -125.1570  -140.4590 O.3          1 ADN1238   0.0000
     5 C3'          9.6450  -123.7310  -140.3620 C.3          1 ADN1238   0.0000
     6 O3'         10.6650  -124.3280  -141.1860 O.3          1 ADN1238   0.0000
     7 C2'          8.5540  -123.0340  -141.2120 C.3          1 ADN1238   0.0000
     8 O2'          8.9010  -122.8590  -142.5860 O.3          1 ADN1238   0.0000
     9 C1'          7.2910  -123.8930  -140.9340 C.3          1 ADN1238   0.0000
    10 N9           6.2670  -123.2900  -139.9980 N.pl3        1 ADN1238   0.0000
    11 C8           4.9940  -123.8380  -139.7620 C.2          1 ADN1238   0.0000
    12 N7           4.2440  -123.1800  -138.9120 N.2          1 ADN1238   0.0000
    13 C5           5.0420  -122.1020  -138.5320 C.ar         1 ADN1238   0.0000
    14 C6           4.8370  -120.9890  -137.6130 C.ar         1 ADN1238   0.0000
    15 N6           3.7100  -120.8180  -136.9160 N.pl3        1 ADN1238   0.0000
    16 N1           5.8660  -120.0790  -137.4720 N.ar         1 ADN1238   0.0000
    17 C2           7.0250  -120.2440  -138.1730 C.ar         1 ADN1238   0.0000
    18 N3           7.3320  -121.2410  -139.0510 N.ar         1 ADN1238   0.0000
    19 C4           6.3000  -122.1420  -139.1860 C.ar         1 ADN1238   0.0000
    20 H5'          8.5907  -126.1034  -136.9268 H            1 ADN1238   0.0000
    21 H5'1         9.5154  -124.3678  -137.6696 H            1 ADN1238   0.0000
    22 H5'2         8.0564  -123.7758  -138.1027 H            1 ADN1238   0.0000
    23 H4'          9.5830  -125.6784  -139.6777 H            1 ADN1238   0.0000
    24 H3'         10.0478  -123.0903  -139.7083 H            1 ADN1238   0.0000
    25 H6          10.3791  -125.2472  -141.4567 H            1 ADN1238   0.0000
    26 H2'          8.3970  -122.1273  -140.8205 H            1 ADN1238   0.0000
    27 H8           9.5138  -123.5959  -142.8715 H            1 ADN1238   0.0000
    28 H1'          6.8387  -124.0569  -141.8107 H            1 ADN1238   0.0000
    29 H10          4.6815  -124.6742  -140.2127 H            1 ADN1238   0.0000
    30 H11          3.6180  -120.0374  -136.2978 H            1 ADN1238   0.0000
    31 H12          2.9585  -121.4706  -137.0126 H            1 ADN1238   0.0000
    32 H13          7.7322  -119.5526  -138.0255 H            1 ADN1238   0.0000
@<TRIPOS>BOND
     1    1    2       1
     2    2    3       1
     3    3    4       1
     4    3    5       1
     5    4    9       1
     6    5    6       1
     7    5    7       1
     8    7    8       1
     9    7    9       1
    10    9   10       1
    11   10   11       1
    12   10   19       1
    13   11   12       2
    14   12   13       1
    15   13   14      ar
    16   13   19      ar
    17   14   15       1
    18   14   16      ar
    19   16   17      ar
    20   17   18      ar
    21   18   19      ar
    22    1   20       1
    23    2   21       1
    24    2   22       1
    25    3   23       1
    26    5   24       1
    27    6   25       1
    28    7   26       1
    29    8   27       1
    30    9   28       1
    31   11   29       1
    32   15   30       1
    33   15   31       1
    34   17   32       1
@<TRIPOS>SUBSTRUCTURE
     1 ADN1238     1 GROUP             4 C     ADN     0 **** ADN C1238
