@<TRIPOS>MOLECULE
4ig6_SAH_1_ligand
   46    48     1     0     0
SMALL
NO_CHARGES


@<TRIPOS>ATOM
     1 N           -2.9780    23.3870   -32.3430 N.4          1 SAH301   1.0000
     2 CA          -3.4250    23.4550   -30.9110 C.3          1 SAH301   0.0000
     3 CB          -4.9760    23.4920   -30.8530 C.3          1 SAH301   0.0000
     4 CG          -5.4850    24.0080   -29.4980 C.3          1 SAH301   0.0000
     5 SD          -7.2080    23.6770   -29.3990 S.3          1 SAH301   0.0000
     6 C           -2.8730    22.2910   -30.1250 C.2          1 SAH301   0.0000
     7 O           -2.5630    21.2410   -30.6980 O.co2        1 SAH301   0.0000
     8 OXT         -2.7200    22.3680   -28.8950 O.co2        1 SAH301  -1.0000
     9 C5'         -7.8000    25.0270   -28.4190 C.3          1 SAH301   0.0000
    10 C4'         -7.9970    24.6670   -26.9430 C.3          1 SAH301   0.0000
    11 O4'         -8.9480    23.6100   -26.7630 O.3          1 SAH301   0.0000
    12 C3'         -6.7530    24.2000   -26.1950 C.3          1 SAH301   0.0000
    13 O3'         -5.9010    25.2730   -25.8160 O.3          1 SAH301   0.0000
    14 C2'         -7.3340    23.4520   -25.0040 C.3          1 SAH301   0.0000
    15 O2'         -7.7290    24.2880   -23.9080 O.3          1 SAH301   0.0000
    16 C1'         -8.5900    22.8800   -25.5960 C.3          1 SAH301   0.0000
    17 N9          -8.4830    21.4590   -25.9550 N.pl3        1 SAH301   0.0000
    18 C8          -8.4940    20.9150   -27.1950 C.2          1 SAH301   0.0000
    19 N7          -8.4640    19.5680   -27.1480 N.2          1 SAH301   0.0000
    20 C5          -8.4510    19.2780   -25.8300 C.ar         1 SAH301   0.0000
    21 C6          -8.4320    18.0510   -25.0480 C.ar         1 SAH301   0.0000
    22 N6          -8.4020    16.8980   -25.7320 N.pl3        1 SAH301   0.0000
    23 N1          -8.4470    18.1380   -23.6990 N.ar         1 SAH301   0.0000
    24 C2          -8.4730    19.3190   -23.0430 C.ar         1 SAH301   0.0000
    25 N3          -8.4750    20.4880   -23.6980 N.ar         1 SAH301   0.0000
    26 C4          -8.4680    20.5070   -25.0510 C.ar         1 SAH301   0.0000
    27 H1          -2.8577    24.3137   -32.6990 H            1 SAH301   0.0000
    28 H2          -2.1100    22.8935   -32.3982 H            1 SAH301   0.0000
    29 HA          -3.0738    24.3013   -30.5105 H            1 SAH301   0.0000
    30 HB1         -5.3274    22.5674   -30.9998 H            1 SAH301   0.0000
    31 HB2         -5.3125    24.0952   -31.5761 H            1 SAH301   0.0000
    32 HG1         -5.3246    24.9926   -29.4284 H            1 SAH301   0.0000
    33 HG2         -5.0067    23.5391   -28.7555 H            1 SAH301   0.0000
    34 H5'1        -8.6777    25.3282   -28.7917 H            1 SAH301   0.0000
    35 H5'2        -7.1388    25.7749   -28.4773 H            1 SAH301   0.0000
    36 H4'         -8.3488    25.4777   -26.4750 H            1 SAH301   0.0000
    37 H3'         -6.2427    23.5603   -26.7698 H            1 SAH301   0.0000
    38 H12         -5.9866    26.0167   -26.4790 H            1 SAH301   0.0000
    39 H2'         -6.7171    22.7265   -24.6990 H            1 SAH301   0.0000
    40 H14         -8.0977    23.7204   -23.1719 H            1 SAH301   0.0000
    41 H1'         -9.3258    22.9795   -24.9261 H            1 SAH301   0.0000
    42 H16         -8.5210    21.4469   -28.0414 H            1 SAH301   0.0000
    43 H17         -8.3879    16.0263   -25.2422 H            1 SAH301   0.0000
    44 H18         -8.3937    16.9099   -26.7319 H            1 SAH301   0.0000
    45 H19         -8.4912    19.3207   -22.0432 H            1 SAH301   0.0000
    46 H20         -3.6686    22.9085   -32.8854 H            1 SAH301   0.0000
@<TRIPOS>BOND
     1    1    2       1
     2    2    3       1
     3    2    6       1
     4    3    4       1
     5    4    5       1
     6    5    9       1
     7    6    7      ar
     8    6    8      ar
     9    9   10       1
    10   10   11       1
    11   10   12       1
    12   11   16       1
    13   12   13       1
    14   12   14       1
    15   14   15       1
    16   14   16       1
    17   16   17       1
    18   17   18       1
    19   17   26       1
    20   18   19       2
    21   19   20       1
    22   20   21      ar
    23   20   26      ar
    24   21   22       1
    25   21   23      ar
    26   23   24      ar
    27   24   25      ar
    28   25   26      ar
    29    1   27       1
    30    1   28       1
    31    2   29       1
    32    3   30       1
    33    3   31       1
    34    4   32       1
    35    4   33       1
    36    1   46       1
    37    9   34       1
    38    9   35       1
    39   10   36       1
    40   12   37       1
    41   13   38       1
    42   14   39       1
    43   15   40       1
    44   16   41       1
    45   18   42       1
    46   22   43       1
    47   22   44       1
    48   24   45       1
@<TRIPOS>SUBSTRUCTURE
     1 SAH301      1 GROUP             4 A     SAH     0 **** SAH A 301
