@<TRIPOS>MOLECULE
4kig_ENO_1_ligand
   20    20     1     0     0
SMALL
NO_CHARGES


@<TRIPOS>ATOM
     1 O4          24.0810     9.8750   148.8880 O.2          1 ENO501   0.0000
     2 C9          25.2660     7.3180   148.0640 C.ar         1 ENO501   0.0000
     3 C8          25.0220     6.1000   147.4580 C.ar         1 ENO501   0.0000
     4 C7          24.9050     4.9720   148.2540 C.ar         1 ENO501   0.0000
     5 C6          25.0450     5.0480   149.6220 C.ar         1 ENO501   0.0000
     6 C5          25.2850     6.2570   150.1970 C.ar         1 ENO501   0.0000
     7 C4          25.3780     7.3920   149.4410 C.ar         1 ENO501   0.0000
     8 O3          24.6570     3.7490   147.7120 O.3          1 ENO501   0.0000
     9 C3          25.6800     8.6780   150.1600 C.3          1 ENO501   0.0000
    10 C2          24.7450     9.8280   149.8830 C.2          1 ENO501   0.0000
    11 C1          24.6870    10.9370   150.8180 C.2          1 ENO501   0.0000
    12 O2          24.0650    11.9600   150.4640 O.co2        1 ENO501   0.0000
    13 O1          25.2780    10.8500   151.9330 O.co2        1 ENO501  -1.0000
    14 H1          25.3614     8.1440   147.5084 H            1 ENO501   0.0000
    15 H2          24.9317     6.0342   146.4643 H            1 ENO501   0.0000
    16 H3          24.9712     4.2250   150.1852 H            1 ENO501   0.0000
    17 H4          25.3952     6.3165   151.1891 H            1 ENO501   0.0000
    18 H5          24.5557     3.6521   146.7219 H            1 ENO501   0.0000
    19 H6          26.6021     8.9644   149.8997 H            1 ENO501   0.0000
    20 H7          25.6535     8.4924   151.1423 H            1 ENO501   0.0000
@<TRIPOS>BOND
     1    1   10       2
     2    2    3      ar
     3    2    7      ar
     4    3    4      ar
     5    4    5      ar
     6    4    8       1
     7    5    6      ar
     8    6    7      ar
     9    7    9       1
    10    9   10       1
    11   10   11       1
    12   11   12      ar
    13   11   13      ar
    14    2   14       1
    15    3   15       1
    16    5   16       1
    17    6   17       1
    18    8   18       1
    19    9   19       1
    20    9   20       1
@<TRIPOS>SUBSTRUCTURE
     1 ENO501      1 GROUP             4 A     ENO     0 **** ENO A 501
