@<TRIPOS>MOLECULE
3f8r_NAP_4_ligand
   42    44     1     0     0
SMALL
NO_CHARGES


@<TRIPOS>ATOM
     1 PA          41.1090    83.4670   -24.4260 P.3          1 NAP4006   0.0000
     2 O1A         39.8300    83.9150   -23.8660 O.co2        1 NAP4006   0.0000
     3 O2A         41.1930    82.8650   -25.7750 O.co2        1 NAP4006  -1.0000
     4 O5B         42.1370    84.7180   -24.3600 O.3          1 NAP4006   0.0000
     5 C5B         43.4850    84.5660   -24.7450 C.3          1 NAP4006   0.0000
     6 C4B         44.1410    85.8980   -25.0840 C.3          1 NAP4006   0.0000
     7 O4B         45.4660    85.8040   -25.5460 O.3          1 NAP4006   0.0000
     8 C3B         43.3450    86.6830   -26.1340 C.3          1 NAP4006   0.0000
     9 O3B         42.8490    87.9000   -25.5980 O.3          1 NAP4006   0.0000
    10 C2B         44.3080    86.8000   -27.2900 C.3          1 NAP4006   0.0000
    11 O2B         44.0870    87.9010   -28.2030 O.3          1 NAP4006   0.0000
    12 C1B         45.6150    86.8090   -26.5700 C.3          1 NAP4006   0.0000
    13 N9A         46.7690    86.4490   -27.4120 N.pl3        1 NAP4006   0.0000
    14 C8A         46.8810    85.3030   -28.1840 C.2          1 NAP4006   0.0000
    15 N7A         48.0380    85.1310   -28.7380 N.2          1 NAP4006   0.0000
    16 C5A         48.7460    86.2630   -28.3310 C.ar         1 NAP4006   0.0000
    17 C6A         50.0840    86.6840   -28.5620 C.ar         1 NAP4006   0.0000
    18 N6A         50.9520    85.9560   -29.2750 N.pl3        1 NAP4006   0.0000
    19 N1A         50.4770    87.8830   -28.0240 N.ar         1 NAP4006   0.0000
    20 C2A         49.6030    88.6070   -27.3110 C.ar         1 NAP4006   0.0000
    21 N3A         48.3360    88.3020   -26.9980 N.ar         1 NAP4006   0.0000
    22 C4A         47.9650    87.0970   -27.5540 C.ar         1 NAP4006   0.0000
    23 O3          41.8080    82.3250   -23.4620 O.3          1 NAP4006   0.0000
    24 PN          41.6600    82.0440   -21.8770 P.3          1 NAP4006   0.0000
    25 O1N         42.5050    80.8180   -21.6640 O.co2        1 NAP4006   0.0000
    26 O2N         42.0360    83.2520   -21.0780 O.co2        1 NAP4006  -1.0000
    27 O5D         40.0620    81.6980   -21.7190 O.co2        1 NAP4006  -1.0000
    28 P2B         43.6450    87.6270   -29.8200 P.3          1 NAP4006   0.0000
    29 O1X         44.8070    86.7860   -30.3790 O.co2        1 NAP4006   0.0000
    30 O2X         42.3420    87.1810   -29.8960 O.co2        1 NAP4006  -1.0000
    31 O3X         43.7260    89.0350   -30.3270 O.co2        1 NAP4006  -1.0000
    32 H5B1        43.5251    83.9734   -25.5495 H            1 NAP4006   0.0000
    33 H5B2        43.9887    84.1413   -23.9927 H            1 NAP4006   0.0000
    34 H4B         44.1542    86.4461   -24.2477 H            1 NAP4006   0.0000
    35 H3B         42.5678    86.1249   -26.4246 H            1 NAP4006   0.0000
    36 H5          42.7832    88.5825   -26.3259 H            1 NAP4006   0.0000
    37 H2B         44.2561    85.9518   -27.8171 H            1 NAP4006   0.0000
    38 H1B         45.7661    87.7037   -26.1496 H            1 NAP4006   0.0000
    39 H8A         46.1257    84.6586   -28.3037 H            1 NAP4006   0.0000
    40 H6A1        51.8852    86.2867   -29.4153 H            1 NAP4006   0.0000
    41 H6A2        50.6672    85.0814   -29.6674 H            1 NAP4006   0.0000
    42 H2A         49.9384    89.4851   -26.9697 H            1 NAP4006   0.0000
@<TRIPOS>BOND
     1    1    2      ar
     2    1    3      ar
     3    1    4       1
     4    1   23       1
     5    4    5       1
     6    5    6       1
     7    6    7       1
     8    6    8       1
     9    7   12       1
    10    8    9       1
    11    8   10       1
    12   10   11       1
    13   10   12       1
    14   11   28       1
    15   12   13       1
    16   13   14       1
    17   13   22       1
    18   14   15       2
    19   15   16       1
    20   16   17      ar
    21   16   22      ar
    22   17   18       1
    23   17   19      ar
    24   19   20      ar
    25   20   21      ar
    26   21   22      ar
    27   23   24       1
    28   24   25      ar
    29   24   26      ar
    30   24   27      ar
    31   28   29      ar
    32   28   30      ar
    33   28   31      ar
    34   20   42       1
    35    5   32       1
    36    5   33       1
    37    6   34       1
    38    8   35       1
    39    9   36       1
    40   10   37       1
    41   12   38       1
    42   14   39       1
    43   18   40       1
    44   18   41       1
@<TRIPOS>SUBSTRUCTURE
     1 NAP4006     1 GROUP             4 B     NAP     0 **** NAP B4006
