@<TRIPOS>MOLECULE
1fq1_ATP_1_ligand
   43    45     1     0     0
SMALL
NO_CHARGES


@<TRIPOS>ATOM
     1 PG         -37.2050    83.4220    33.8150 P.3          1 ATP381   0.0000
     2 O1G        -38.3730    84.0160    33.1200 O.co2        1 ATP381   0.0000
     3 O2G        -35.9810    84.2440    33.8060 O.co2        1 ATP381  -1.0000
     4 O3G        -37.0200    81.9490    33.5050 O.co2        1 ATP381  -1.0000
     5 PB         -38.9390    82.9420    36.1050 P.3          1 ATP381   0.0000
     6 O1B        -39.3610    81.7080    35.4110 O.co2        1 ATP381   0.0000
     7 O2B        -38.7880    82.8860    37.5510 O.co2        1 ATP381  -1.0000
     8 O3B        -37.5980    83.4860    35.3770 O.3          1 ATP381   0.0000
     9 PA         -40.3040    85.4440    36.1830 P.3          1 ATP381   0.0000
    10 O1A        -41.0090    85.1260    37.4210 O.co2        1 ATP381   0.0000
    11 O2A        -39.1970    86.4150    36.1820 O.co2        1 ATP381  -1.0000
    12 O3A        -39.8960    84.0290    35.6480 O.3          1 ATP381   0.0000
    13 O5'        -41.3700    85.8550    35.1290 O.3          1 ATP381   0.0000
    14 C5'        -41.1150    86.3210    33.7940 C.3          1 ATP381   0.0000
    15 C4'        -42.2370    85.9150    32.8760 C.3          1 ATP381   0.0000
    16 O4'        -43.4710    86.3970    33.4120 O.3          1 ATP381   0.0000
    17 C3'        -42.1120    86.4730    31.5130 C.3          1 ATP381   0.0000
    18 O3'        -42.8270    85.6590    30.5710 O.3          1 ATP381   0.0000
    19 C2'        -42.7550    87.8370    31.6940 C.3          1 ATP381   0.0000
    20 O2'        -43.3720    88.3570    30.5300 O.3          1 ATP381   0.0000
    21 C1'        -43.8850    87.5900    32.7470 C.3          1 ATP381   0.0000
    22 N9         -44.0140    88.6520    33.7970 N.pl3        1 ATP381   0.0000
    23 C8         -43.5470    88.6430    35.1020 C.2          1 ATP381   0.0000
    24 N7         -43.8000    89.7080    35.7940 N.2          1 ATP381   0.0000
    25 C5         -44.4910    90.4890    34.8930 C.ar         1 ATP381   0.0000
    26 C6         -45.0530    91.7840    35.0020 C.ar         1 ATP381   0.0000
    27 N6         -44.9700    92.4600    36.1390 N.pl3        1 ATP381   0.0000
    28 N1         -45.6910    92.3120    33.9140 N.ar         1 ATP381   0.0000
    29 C2         -45.7630    91.6030    32.7690 C.ar         1 ATP381   0.0000
    30 N3         -45.2720    90.3690    32.5290 N.ar         1 ATP381   0.0000
    31 C4         -44.6280    89.8650    33.6570 C.ar         1 ATP381   0.0000
    32 H5'1       -40.2586    85.9240    33.4639 H            1 ATP381   0.0000
    33 H5'2       -41.0392    87.3181    33.8014 H            1 ATP381   0.0000
    34 H4'        -42.2708    84.9171    32.8203 H            1 ATP381   0.0000
    35 H3'        -41.1513    86.5629    31.2505 H            1 ATP381   0.0000
    36 H5         -43.7943    85.6291    30.8230 H            1 ATP381   0.0000
    37 H2'        -42.0865    88.4893    32.0513 H            1 ATP381   0.0000
    38 H7         -42.8945    88.0174    29.7196 H            1 ATP381   0.0000
    39 H1'        -44.7620    87.4460    32.2886 H            1 ATP381   0.0000
    40 H9         -43.0476    87.8654    35.4840 H            1 ATP381   0.0000
    41 H10        -45.3696    93.3741    36.2075 H            1 ATP381   0.0000
    42 H11        -44.5077    92.0559    36.9283 H            1 ATP381   0.0000
    43 H12        -46.2367    92.0443    32.0069 H            1 ATP381   0.0000
@<TRIPOS>BOND
     1    1    2      ar
     2    1    3      ar
     3    1    4      ar
     4    1    8       1
     5    5    6      ar
     6    5    7      ar
     7    5    8       1
     8    5   12       1
     9    9   10      ar
    10    9   11      ar
    11    9   12       1
    12    9   13       1
    13   13   14       1
    14   14   15       1
    15   15   16       1
    16   15   17       1
    17   16   21       1
    18   17   18       1
    19   17   19       1
    20   19   20       1
    21   19   21       1
    22   21   22       1
    23   22   23       1
    24   22   31       1
    25   23   24       2
    26   24   25       1
    27   25   26      ar
    28   25   31      ar
    29   26   27       1
    30   26   28      ar
    31   28   29      ar
    32   29   30      ar
    33   30   31      ar
    34   29   43       1
    35   27   42       1
    36   27   41       1
    37   23   40       1
    38   14   32       1
    39   14   33       1
    40   15   34       1
    41   17   35       1
    42   18   36       1
    43   19   37       1
    44   20   38       1
    45   21   39       1
@<TRIPOS>SUBSTRUCTURE
     1 ATP381      1 GROUP             4 B     ATP     0 **** ATP B 381
