@<TRIPOS>MOLECULE
3q1k_ADP_1_ligand
   39    41     1     0     0
SMALL
NO_CHARGES


@<TRIPOS>ATOM
     1 PB          49.1540    17.7970    49.7730 P.3          1 ADP370   0.0000
     2 O1B         47.9790    17.6160    50.7000 O.co2        1 ADP370   0.0000
     3 O2B         49.0590    16.9700    48.5190 O.co2        1 ADP370  -1.0000
     4 O3B         49.5090    19.2620    49.5630 O.co2        1 ADP370  -1.0000
     5 PA          50.9000    17.0490    51.9820 P.3          1 ADP370   0.0000
     6 O1A         49.8130    17.6270    52.8700 O.co2        1 ADP370   0.0000
     7 O2A         52.3340    17.5470    52.0410 O.co2        1 ADP370  -1.0000
     8 O3A         50.4870    17.1440    50.4240 O.3          1 ADP370   0.0000
     9 O5'         50.9150    15.4710    52.3210 O.3          1 ADP370   0.0000
    10 C5'         49.6990    14.7290    52.2660 C.3          1 ADP370   0.0000
    11 C4'         49.6830    13.7720    53.4550 C.3          1 ADP370   0.0000
    12 O4'         50.8620    12.9540    53.4860 O.3          1 ADP370   0.0000
    13 C3'         49.6800    14.4930    54.7980 C.3          1 ADP370   0.0000
    14 O3'         48.3680    14.8950    55.1610 O.3          1 ADP370   0.0000
    15 C2'         50.3210    13.4880    55.7540 C.3          1 ADP370   0.0000
    16 O2'         49.4160    12.5050    56.2970 O.3          1 ADP370   0.0000
    17 C1'         51.2960    12.7630    54.8460 C.3          1 ADP370   0.0000
    18 N9          52.6260    13.4020    55.0250 N.pl3        1 ADP370   0.0000
    19 C8          53.2240    14.2310    54.1480 C.2          1 ADP370   0.0000
    20 N7          54.4350    14.6360    54.6140 N.2          1 ADP370   0.0000
    21 C5          54.6260    14.0560    55.8160 C.ar         1 ADP370   0.0000
    22 C6          55.6950    14.0540    56.8460 C.ar         1 ADP370   0.0000
    23 N6          56.8300    14.7850    56.6820 N.pl3        1 ADP370   0.0000
    24 N1          55.4830    13.3000    57.9600 N.ar         1 ADP370   0.0000
    25 C2          54.3540    12.5800    58.1350 C.ar         1 ADP370   0.0000
    26 N3          53.3440    12.5480    57.2400 N.ar         1 ADP370   0.0000
    27 C4          53.4240    13.2450    56.0850 C.ar         1 ADP370   0.0000
    28 H5'1        49.6547    14.2111    51.4117 H            1 ADP370   0.0000
    29 H5'2        48.9180    15.3512    52.3194 H            1 ADP370   0.0000
    30 H4'         48.8759    13.1847    53.3945 H            1 ADP370   0.0000
    31 H3'         50.2639    15.3024    54.7354 H            1 ADP370   0.0000
    32 H5          48.2854    14.9026    56.1576 H            1 ADP370   0.0000
    33 H2'         50.8084    13.9614    56.4877 H            1 ADP370   0.0000
    34 H7          48.6908    12.9661    56.8084 H            1 ADP370   0.0000
    35 H1'         51.3361    11.7899    55.0727 H            1 ADP370   0.0000
    36 H9          52.8303    14.5108    53.2724 H            1 ADP370   0.0000
    37 H10         57.5396    14.7715    57.3865 H            1 ADP370   0.0000
    38 H11         56.9550    15.3360    55.8569 H            1 ADP370   0.0000
    39 H12         54.2612    12.0416    58.9726 H            1 ADP370   0.0000
@<TRIPOS>BOND
     1    1    2      ar
     2    1    3      ar
     3    1    4      ar
     4    1    8       1
     5    5    6      ar
     6    5    7      ar
     7    5    8       1
     8    5    9       1
     9    9   10       1
    10   10   11       1
    11   11   12       1
    12   11   13       1
    13   12   17       1
    14   13   14       1
    15   13   15       1
    16   15   16       1
    17   15   17       1
    18   17   18       1
    19   18   19       1
    20   18   27       1
    21   19   20       2
    22   20   21       1
    23   21   22      ar
    24   21   27      ar
    25   22   23       1
    26   22   24      ar
    27   24   25      ar
    28   25   26      ar
    29   26   27      ar
    30   25   39       1
    31   23   38       1
    32   23   37       1
    33   10   28       1
    34   10   29       1
    35   11   30       1
    36   13   31       1
    37   14   32       1
    38   15   33       1
    39   16   34       1
    40   17   35       1
    41   19   36       1
@<TRIPOS>SUBSTRUCTURE
     1 ADP370      1 GROUP             4 A     ADP     0 **** ADP A 370
