@<TRIPOS>MOLECULE
3ogk_OGK_3_ligand
   49    51     1     0     0
SMALL
NO_CHARGES


@<TRIPOS>ATOM
     1 C01        -37.4370    14.7190    64.0090 C.3          1 OGK1100   0.0000
     2 C02        -38.3450    15.7430    63.3120 C.3          1 OGK1100   0.0000
     3 C03        -37.8840    16.3650    61.9730 C.3          1 OGK1100   0.0000
     4 C04        -39.1180    16.5600    61.1210 C.3          1 OGK1100   0.0000
     5 C05        -39.5930    17.9560    60.8460 C.3          1 OGK1100   0.0000
     6 C06        -40.9690    18.1160    60.1710 C.2          1 OGK1100   0.0000
     7 O07        -41.6210    17.1480    59.9780 O.2          1 OGK1100   0.0000
     8 N08        -41.2570    19.3750    59.4490 N.am         1 OGK1100   0.0000
     9 C09        -42.6140    19.6770    58.8870 C.3          1 OGK1100   0.0000
    10 C10        -42.8400    19.2490    57.8360 C.2          1 OGK1100   0.0000
    11 O11        -41.9520    19.1930    57.0400 O.co2        1 OGK1100   0.0000
    12 O12        -44.0140    18.4980    57.5260 O.co2        1 OGK1100  -1.0000
    13 C13        -43.5390    19.7640    59.7670 C.3          1 OGK1100   0.0000
    14 C14        -42.9660    20.8770    59.3600 C.3          1 OGK1100   0.0000
    15 C15        -43.4660    21.5200    58.0480 C.3          1 OGK1100   0.0000
    16 C16        -44.1220    22.8940    58.2090 C.3          1 OGK1100   0.0000
    17 C17        -38.5310    19.0320    60.5440 C.3          1 OGK1100   0.0000
    18 C18        -39.0320    20.1020    61.3490 C.3          1 OGK1100   0.0000
    19 C19        -37.8310    21.0210    61.5640 C.3          1 OGK1100   0.0000
    20 C20        -36.6760    20.0450    61.5990 C.2          1 OGK1100   0.0000
    21 O21        -35.5330    20.3520    61.6840 O.2          1 OGK1100   0.0000
    22 C22        -37.1650    18.7140    61.0930 C.3          1 OGK1100   0.0000
    23 C23        -37.1220    17.6540    62.2400 C.3          1 OGK1100   0.0000
    24 H1         -37.8702    14.4117    64.8563 H            1 OGK1100   0.0000
    25 H2         -37.2933    13.9352    63.4048 H            1 OGK1100   0.0000
    26 H3         -36.5564    15.1434    64.2197 H            1 OGK1100   0.0000
    27 H4         -38.4823    16.4975    63.9537 H            1 OGK1100   0.0000
    28 H5         -39.2192    15.2894    63.1388 H            1 OGK1100   0.0000
    29 H6         -37.2739    15.7204    61.5123 H            1 OGK1100   0.0000
    30 H7         -39.8677    16.0785    61.5750 H            1 OGK1100   0.0000
    31 H8         -38.9347    16.1322    60.2359 H            1 OGK1100   0.0000
    32 H9         -39.8378    18.2286    61.7765 H            1 OGK1100   0.0000
    33 H10        -40.5240    20.0452    59.3322 H            1 OGK1100   0.0000
    34 H11        -43.3718    19.4320    60.6953 H            1 OGK1100   0.0000
    35 H12        -44.4862    19.5723    59.5100 H            1 OGK1100   0.0000
    36 H13        -42.3519    21.3807    59.9676 H            1 OGK1100   0.0000
    37 H14        -44.1362    20.9028    57.6359 H            1 OGK1100   0.0000
    38 H15        -42.6832    21.6201    57.4338 H            1 OGK1100   0.0000
    39 H16        -44.4131    23.2313    57.3138 H            1 OGK1100   0.0000
    40 H17        -44.9172    22.8153    58.8103 H            1 OGK1100   0.0000
    41 H18        -43.4642    23.5327    58.6081 H            1 OGK1100   0.0000
    42 H19        -38.5015    19.2715    59.5735 H            1 OGK1100   0.0000
    43 H20        -39.3722    19.7560    62.2234 H            1 OGK1100   0.0000
    44 H21        -39.7663    20.5868    60.8739 H            1 OGK1100   0.0000
    45 H22        -37.9081    21.5210    62.4266 H            1 OGK1100   0.0000
    46 H23        -37.7330    21.6704    60.8099 H            1 OGK1100   0.0000
    47 H24        -36.5742    18.4111    60.3452 H            1 OGK1100   0.0000
    48 H25        -36.1645    17.4169    62.4040 H            1 OGK1100   0.0000
    49 H26        -37.5068    18.0742    63.0618 H            1 OGK1100   0.0000
@<TRIPOS>BOND
     1    1    2       1
     2    2    3       1
     3    3    4       1
     4    3   23       1
     5    4    5       1
     6    5    6       1
     7    5   17       1
     8    6    7       2
     9    6    8      am
    10    8    9       1
    11    9   10       1
    12    9   13       1
    13    9   14       1
    14   10   11      ar
    15   10   12      ar
    16   13   14       1
    17   14   15       1
    18   15   16       1
    19   17   18       1
    20   17   22       1
    21   18   19       1
    22   19   20       1
    23   20   21       2
    24   20   22       1
    25   22   23       1
    26    1   24       1
    27    1   25       1
    28    1   26       1
    29    2   27       1
    30    2   28       1
    31    3   29       1
    32    4   30       1
    33    4   31       1
    34    5   32       1
    35    8   33       1
    36   23   49       1
    37   13   34       1
    38   13   35       1
    39   14   36       1
    40   15   37       1
    41   15   38       1
    42   16   39       1
    43   16   40       1
    44   16   41       1
    45   17   42       1
    46   18   43       1
    47   18   44       1
    48   19   45       1
    49   19   46       1
    50   22   47       1
    51   23   48       1
@<TRIPOS>SUBSTRUCTURE
     1 OGK1100     1 GROUP             4 F     OGK     0 **** OGK F1100
