@<TRIPOS>MOLECULE
3djl_FAD_1_ligand
   84    89     1     0     0
SMALL
NO_CHARGES


@<TRIPOS>ATOM
     1 PA         -65.0910     1.4940   -25.0180 P.3          1 FAD602   0.0000
     2 O1A        -64.0590     0.4850   -25.3360 O.co2        1 FAD602   0.0000
     3 O2A        -64.5640     2.8040   -24.4710 O.co2        1 FAD602  -1.0000
     4 O5B        -66.0920     1.6090   -26.2570 O.3          1 FAD602   0.0000
     5 C5B        -67.0990     2.6180   -26.3290 C.3          1 FAD602   0.0000
     6 C4B        -67.8190     2.4970   -27.6630 C.3          1 FAD602   0.0000
     7 O4B        -66.8750     2.7540   -28.7160 O.3          1 FAD602   0.0000
     8 C3B        -68.4020     1.0800   -27.9620 C.3          1 FAD602   0.0000
     9 O3B        -69.6230     1.1720   -28.6260 O.3          1 FAD602   0.0000
    10 C2B        -67.3660     0.4890   -28.8950 C.3          1 FAD602   0.0000
    11 O2B        -67.8700    -0.4640   -29.7730 O.3          1 FAD602   0.0000
    12 C1B        -66.9290     1.7190   -29.6790 C.3          1 FAD602   0.0000
    13 N9A        -65.6080     1.5490   -30.2800 N.pl3        1 FAD602   0.0000
    14 C8A        -64.4820     1.0900   -29.6420 C.2          1 FAD602   0.0000
    15 N7A        -63.4910     1.0820   -30.5460 N.2          1 FAD602   0.0000
    16 C5A        -63.9560     1.5270   -31.7520 C.ar         1 FAD602   0.0000
    17 C6A        -63.3730     1.7040   -33.0040 C.ar         1 FAD602   0.0000
    18 N6A        -62.1200     1.3020   -33.2810 N.pl3        1 FAD602   0.0000
    19 N1A        -64.1580     2.1880   -34.0480 N.ar         1 FAD602   0.0000
    20 C2A        -65.5040     2.4720   -33.8530 C.ar         1 FAD602   0.0000
    21 N3A        -66.0890     2.2810   -32.6280 N.ar         1 FAD602   0.0000
    22 C4A        -65.3080     1.8390   -31.5770 C.ar         1 FAD602   0.0000
    23 N1         -65.6550    -6.8340   -18.9360 N.2          1 FAD602   0.0000
    24 C2         -64.7820    -7.8150   -18.5030 C.2          1 FAD602   0.0000
    25 O2         -63.6020    -7.8130   -18.9190 O.2          1 FAD602   0.0000
    26 N3         -65.2440    -8.8150   -17.6430 N.pl3        1 FAD602   0.0000
    27 C4         -66.5330    -8.7900   -17.1530 C.2          1 FAD602   0.0000
    28 O4         -66.8870    -9.6670   -16.3620 O.2          1 FAD602   0.0000
    29 C4X        -67.4200    -7.7910   -17.5750 C.2          1 FAD602   0.0000
    30 N5         -68.7210    -7.7240   -17.0910 N.2          1 FAD602   0.0000
    31 C5X        -69.5880    -6.7450   -17.5450 C.ar         1 FAD602   0.0000
    32 C6         -70.9040    -6.6980   -17.0440 C.ar         1 FAD602   0.0000
    33 C7         -71.7690    -5.6920   -17.4810 C.ar         1 FAD602   0.0000
    34 C7M        -73.1880    -5.6490   -16.9530 C.3          1 FAD602   0.0000
    35 C8         -71.3180    -4.7440   -18.4140 C.ar         1 FAD602   0.0000
    36 C8M        -72.2450    -3.6540   -18.8840 C.3          1 FAD602   0.0000
    37 C9         -70.0170    -4.8020   -18.8910 C.ar         1 FAD602   0.0000
    38 C9A        -69.1330    -5.7850   -18.4460 C.ar         1 FAD602   0.0000
    39 N10        -67.7990    -5.8360   -18.9240 N.pl3        1 FAD602   0.0000
    40 C10        -66.9520    -6.8140   -18.4790 C.2          1 FAD602   0.0000
    41 C1'        -67.2260    -4.6960   -19.6870 C.3          1 FAD602   0.0000
    42 C2'        -67.5560    -4.8350   -21.1910 C.3          1 FAD602   0.0000
    43 O2'        -66.8240    -5.8980   -21.7780 O.3          1 FAD602   0.0000
    44 C3'        -67.1430    -3.4860   -21.8030 C.3          1 FAD602   0.0000
    45 O3'        -68.0460    -2.4740   -21.3410 O.3          1 FAD602   0.0000
    46 C4'        -67.1060    -3.4800   -23.3390 C.3          1 FAD602   0.0000
    47 O4'        -66.0320    -4.2750   -23.8040 O.3          1 FAD602   0.0000
    48 C5'        -66.9290    -2.0590   -23.8800 C.3          1 FAD602   0.0000
    49 O5'        -65.7320    -1.5110   -23.3440 O.3          1 FAD602   0.0000
    50 P          -65.8100    -0.0410   -22.6910 P.3          1 FAD602   0.0000
    51 O1P        -67.0390     0.0360   -21.8400 O.co2        1 FAD602   0.0000
    52 O2P        -64.5180     0.3630   -22.1120 O.co2        1 FAD602  -1.0000
    53 O3P        -66.1570     0.9310   -23.9460 O.3          1 FAD602   0.0000
    54 H5B1       -66.6758     3.5211   -26.2561 H            1 FAD602   0.0000
    55 H5B2       -67.7523     2.4948   -25.5820 H            1 FAD602   0.0000
    56 H4B        -68.5544     3.1734   -27.7050 H            1 FAD602   0.0000
    57 H3B        -68.4853     0.5392   -27.1250 H            1 FAD602   0.0000
    58 H5         -69.5555     0.7148   -29.5128 H            1 FAD602   0.0000
    59 H2B        -66.5987     0.1146   -28.3744 H            1 FAD602   0.0000
    60 H7         -67.8092    -1.3695   -29.3530 H            1 FAD602   0.0000
    61 H1B        -67.6039     1.9375   -30.3838 H            1 FAD602   0.0000
    62 H8A        -64.4136     0.8136   -28.6834 H            1 FAD602   0.0000
    63 H6A1       -61.7383     1.4480   -34.1937 H            1 FAD602   0.0000
    64 H6A2       -61.5699     0.8570   -32.5743 H            1 FAD602   0.0000
    65 H2A        -66.0517     2.8193   -34.6141 H            1 FAD602   0.0000
    66 H13        -64.6310    -9.5597   -17.3790 H            1 FAD602   0.0000
    67 H14        -71.2161    -7.3788   -16.3814 H            1 FAD602   0.0000
    68 H7M1       -73.6722    -4.8750   -17.3610 H            1 FAD602   0.0000
    69 H7M2       -73.6580    -6.4990   -17.1908 H            1 FAD602   0.0000
    70 H7M3       -73.1706    -5.5446   -15.9586 H            1 FAD602   0.0000
    71 H8M1       -71.7676    -3.0708   -19.5413 H            1 FAD602   0.0000
    72 H8M2       -73.0458    -4.0631   -19.3214 H            1 FAD602   0.0000
    73 H8M3       -72.5371    -3.1043   -18.1013 H            1 FAD602   0.0000
    74 H21        -69.7082    -4.1295   -19.5636 H            1 FAD602   0.0000
    75 H1'1       -66.2333    -4.6848   -19.5670 H            1 FAD602   0.0000
    76 H1'2       -67.6131    -3.8408   -19.3423 H            1 FAD602   0.0000
    77 H2'        -68.5371    -4.9831   -21.3155 H            1 FAD602   0.0000
    78 H25        -66.2480    -5.5401   -22.5129 H            1 FAD602   0.0000
    79 H3'        -66.2275    -3.2610   -21.4695 H            1 FAD602   0.0000
    80 H27        -67.5687    -1.5964   -21.2966 H            1 FAD602   0.0000
    81 H4'        -67.9646    -3.8565   -23.6870 H            1 FAD602   0.0000
    82 H29        -65.2135    -3.7081   -23.8970 H            1 FAD602   0.0000
    83 H5'1       -67.7086    -1.4956   -23.6064 H            1 FAD602   0.0000
    84 H5'2       -66.8698    -2.0842   -24.8779 H            1 FAD602   0.0000
@<TRIPOS>BOND
     1    1    2      ar
     2    1    3      ar
     3    1    4       1
     4    1   53       1
     5    4    5       1
     6    5    6       1
     7    6    7       1
     8    6    8       1
     9    7   12       1
    10    8    9       1
    11    8   10       1
    12   10   11       1
    13   10   12       1
    14   12   13       1
    15   13   14       1
    16   13   22       1
    17   14   15       2
    18   15   16       1
    19   16   17      ar
    20   16   22      ar
    21   17   18       1
    22   17   19      ar
    23   19   20      ar
    24   20   21      ar
    25   21   22      ar
    26   23   24       1
    27   23   40       2
    28   24   25       2
    29   24   26       1
    30   26   27       1
    31   27   28       2
    32   27   29       1
    33   29   30       2
    34   29   40       1
    35   30   31       1
    36   31   32      ar
    37   31   38      ar
    38   32   33      ar
    39   33   34       1
    40   33   35      ar
    41   35   36       1
    42   35   37      ar
    43   37   38      ar
    44   38   39       1
    45   39   40       1
    46   39   41       1
    47   41   42       1
    48   42   43       1
    49   42   44       1
    50   44   45       1
    51   44   46       1
    52   46   47       1
    53   46   48       1
    54   48   49       1
    55   49   50       1
    56   50   51      ar
    57   50   52      ar
    58   50   53       1
    59   48   84       1
    60    5   54       1
    61    5   55       1
    62    6   56       1
    63    8   57       1
    64    9   58       1
    65   10   59       1
    66   11   60       1
    67   12   61       1
    68   14   62       1
    69   18   63       1
    70   18   64       1
    71   20   65       1
    72   26   66       1
    73   32   67       1
    74   34   68       1
    75   34   69       1
    76   34   70       1
    77   36   71       1
    78   36   72       1
    79   36   73       1
    80   37   74       1
    81   41   75       1
    82   41   76       1
    83   42   77       1
    84   43   78       1
    85   44   79       1
    86   45   80       1
    87   46   81       1
    88   47   82       1
    89   48   83       1
@<TRIPOS>SUBSTRUCTURE
     1 FAD602      1 GROUP             4 A     FAD     0 **** FAD A 602
