@<TRIPOS>MOLECULE
1ha3_MAU_2_ligand
  120   122     1     0     0
SMALL
NO_CHARGES


@<TRIPOS>ATOM
     1 C2          39.2730   -10.8690     1.6960 C.2          1 MAU408   0.0000
     2 C3          39.6880   -12.1910     1.3200 C.2          1 MAU408   0.0000
     3 C4          40.9700   -12.3420     0.6740 C.2          1 MAU408   0.0000
     4 C5          41.7780   -11.2020     0.4270 C.2          1 MAU408   0.0000
     5 C6          41.2910    -9.9260     0.8290 C.2          1 MAU408   0.0000
     6 C7          38.7920   -13.3750     1.5770 C.2          1 MAU408   0.0000
     7 C8          38.1710   -14.1580     0.4450 C.2          1 MAU408   0.0000
     8 C20         34.7420   -10.9980    -8.9940 C.3          1 MAU408   0.0000
     9 C21         34.6340    -9.5040    -9.3650 C.2          1 MAU408   0.0000
    10 C24         33.7640    -6.4070    -7.5240 C.2          1 MAU408   0.0000
    11 C25         33.5310    -4.9190    -7.6560 C.3          1 MAU408   0.0000
    12 O4          41.3980   -13.5680     0.2760 O.2          1 MAU408   0.0000
    13 O7          38.5750   -13.7060     2.7490 O.2          1 MAU408   0.0000
    14 C9          38.4060   -13.7640    -0.8520 C.2          1 MAU408   0.0000
    15 C10         37.8900   -14.4250    -2.0500 C.2          1 MAU408   0.0000
    16 C11         37.9110   -13.7320    -3.1970 C.2          1 MAU408   0.0000
    17 C12         37.4190   -14.3190    -4.4300 C.2          1 MAU408   0.0000
    18 C13         37.3900   -13.5760    -5.5440 C.2          1 MAU408   0.0000
    19 C14         36.8690   -14.1380    -6.8580 C.3          1 MAU408   0.0000
    20 C15         37.9780   -14.4610    -7.9000 C.3          1 MAU408   0.0000
    21 C16         37.2040   -14.1350    -9.1770 C.3          1 MAU408   0.0000
    22 C17         36.0860   -13.1440    -8.6870 C.3          1 MAU408   0.0000
    23 C19         36.1590   -11.6640    -9.3020 C.3          1 MAU408   0.0000
    24 C22         34.2950    -8.6260    -8.3650 C.2          1 MAU408   0.0000
    25 C23         34.1230    -7.1750    -8.5740 C.2          1 MAU408   0.0000
    26 O15         39.0620   -13.5190    -7.7750 O.3          1 MAU408   0.0000
    27 N1          40.0830    -9.7890     1.4380 N.pl3        1 MAU408   0.0000
    28 C40         39.6480    -8.4370     1.8140 C.3          1 MAU408   0.0000
    29 O2          38.1460   -10.7080     2.2590 O.3          1 MAU408   0.0000
    30 C41         37.2980   -15.3680     0.7760 C.3          1 MAU408   0.0000
    31 O16         38.0370   -13.5810   -10.2070 O.3          1 MAU408   0.0000
    32 O18         36.0560   -13.0890    -7.4840 O.3          1 MAU408   0.0000
    33 C42         37.3150   -10.8360    -8.6150 C.3          1 MAU408   0.0000
    34 O20         33.7280   -11.7270    -9.7410 O.3          1 MAU408   0.0000
    35 C43         32.5090   -11.8340    -8.9670 C.3          1 MAU408   0.0000
    36 C44         34.8650    -9.0340   -10.8040 C.3          1 MAU408   0.0000
    37 N26         34.1890    -4.3870    -8.8410 N.am         1 MAU408   0.0000
    38 C27         33.4770    -3.6120    -9.7930 C.2          1 MAU408   0.0000
    39 O27         32.2470    -3.4310    -9.6550 O.2          1 MAU408   0.0000
    40 C45         33.6560    -3.5910   -12.3900 C.3          1 MAU408   0.0000
    41 C46         33.4620    -5.0510   -12.3660 C.3          1 MAU408   0.0000
    42 C28         34.2370    -3.0610   -10.9980 C.3          1 MAU408   0.0000
    43 C29         34.1740    -1.4480   -10.9700 C.3          1 MAU408   0.0000
    44 O29         32.7680    -1.0400   -11.0000 O.3          1 MAU408   0.0000
    45 C30         34.8760    -0.8490   -12.1590 C.3          1 MAU408   0.0000
    46 O30         35.9730    -1.2040   -12.1960 O.3          1 MAU408   0.0000
    47 C31         34.8640     0.6430   -11.9240 C.3          1 MAU408   0.0000
    48 O31         35.4810     1.3710   -12.9600 O.3          1 MAU408   0.0000
    49 C32         35.4320     1.0560   -10.5430 C.3          1 MAU408   0.0000
    50 C47         36.9430     0.7960   -10.4460 C.3          1 MAU408   0.0000
    51 C48         35.2140     2.5470   -10.3580 C.3          1 MAU408   0.0000
    52 C33         34.6660     0.2440    -9.5260 C.3          1 MAU408   0.0000
    53 O34         34.6760    -0.9630    -9.7460 O.3          1 MAU408   0.0000
    54 C35         35.1020     0.4360    -8.1010 C.2          1 MAU408   0.0000
    55 C36         35.7380    -0.5070    -7.3510 C.2          1 MAU408   0.0000
    56 C37         36.0990    -0.2200    -6.0020 C.2          1 MAU408   0.0000
    57 C38         36.6150    -1.1500    -5.1400 C.2          1 MAU408   0.0000
    58 C39         36.8590    -2.6040    -5.5150 C.3          1 MAU408   0.0000
    59 H1          42.6685   -11.2927    -0.0189 H            1 MAU408   0.0000
    60 H2          41.8490    -9.1135     0.6600 H            1 MAU408   0.0000
    61 H3          34.5499   -11.0974    -8.0177 H            1 MAU408   0.0000
    62 H4          33.6482    -6.8366    -6.6284 H            1 MAU408   0.0000
    63 H5          33.8948    -4.4586    -6.8463 H            1 MAU408   0.0000
    64 H6          32.5482    -4.7473    -7.7237 H            1 MAU408   0.0000
    65 H7          38.9792   -12.9558    -0.9872 H            1 MAU408   0.0000
    66 H8          37.5348   -15.3591    -2.0148 H            1 MAU408   0.0000
    67 H9          38.2702   -12.7987    -3.2034 H            1 MAU408   0.0000
    68 H10         37.1050   -15.2683    -4.4475 H            1 MAU408   0.0000
    69 H11         37.7178   -12.6318    -5.5112 H            1 MAU408   0.0000
    70 H12         36.3106   -14.9498    -6.6874 H            1 MAU408   0.0000
    71 H13         38.2829   -15.4126    -7.8618 H            1 MAU408   0.0000
    72 H14         36.7730   -14.9698    -9.5195 H            1 MAU408   0.0000
    73 H15         35.2116   -13.5322    -8.9779 H            1 MAU408   0.0000
    74 H16         36.3095   -11.7096   -10.2896 H            1 MAU408   0.0000
    75 H17         34.1570    -8.9900    -7.4439 H            1 MAU408   0.0000
    76 H18         34.2696    -6.7690    -9.4760 H            1 MAU408   0.0000
    77 H19         39.1765   -13.0262    -8.6376 H            1 MAU408   0.0000
    78 H20         40.3525    -7.7762     1.5554 H            1 MAU408   0.0000
    79 H21         38.7951    -8.2175     1.3403 H            1 MAU408   0.0000
    80 H22         39.5003    -8.3971     2.8022 H            1 MAU408   0.0000
    81 H23         36.9619   -15.7784    -0.0717 H            1 MAU408   0.0000
    82 H24         37.8386   -16.0410     1.2807 H            1 MAU408   0.0000
    83 H25         36.5222   -15.0763     1.3356 H            1 MAU408   0.0000
    84 H26         38.0063   -14.1710   -11.0138 H            1 MAU408   0.0000
    85 H27         38.1962   -11.2639    -8.8159 H            1 MAU408   0.0000
    86 H28         37.3104    -9.9005    -8.9684 H            1 MAU408   0.0000
    87 H29         37.1704   -10.8193    -7.6256 H            1 MAU408   0.0000
    88 H30         31.8231   -12.3367    -9.4932 H            1 MAU408   0.0000
    89 H31         32.6974   -12.3207    -8.1140 H            1 MAU408   0.0000
    90 H32         32.1646   -10.9184    -8.7593 H            1 MAU408   0.0000
    91 H33         34.7536    -8.0414   -10.8524 H            1 MAU408   0.0000
    92 H34         35.7911    -9.2798   -11.0904 H            1 MAU408   0.0000
    93 H35         34.2012    -9.4739   -11.4089 H            1 MAU408   0.0000
    94 H36         35.1610    -4.5712    -8.9867 H            1 MAU408   0.0000
    95 H37         32.7769    -3.1481   -12.5661 H            1 MAU408   0.0000
    96 H38         34.2982    -3.3594   -13.1207 H            1 MAU408   0.0000
    97 H39         33.0988    -5.3535   -13.2472 H            1 MAU408   0.0000
    98 H40         34.3384    -5.5009   -12.1945 H            1 MAU408   0.0000
    99 H41         32.8171    -5.2897   -11.6400 H            1 MAU408   0.0000
   100 H42         35.1938    -3.3426   -10.9256 H            1 MAU408   0.0000
   101 H43         32.4228    -0.9645   -10.0645 H            1 MAU408   0.0000
   102 H44         34.3988    -1.0794   -13.0071 H            1 MAU408   0.0000
   103 H45         36.0328    -2.0465   -12.7313 H            1 MAU408   0.0000
   104 H46         33.9025     0.9179   -11.9239 H            1 MAU408   0.0000
   105 H47         35.0028     1.1963   -13.8207 H            1 MAU408   0.0000
   106 H48         37.2718     1.0742    -9.5435 H            1 MAU408   0.0000
   107 H49         37.1229    -0.1785   -10.5805 H            1 MAU408   0.0000
   108 H50         37.4178     1.3230   -11.1508 H            1 MAU408   0.0000
   109 H51         35.5761     2.8291    -9.4696 H            1 MAU408   0.0000
   110 H52         35.6871     3.0457   -11.0843 H            1 MAU408   0.0000
   111 H53         34.2353     2.7483   -10.3983 H            1 MAU408   0.0000
   112 H54         33.7122     0.5397    -9.5789 H            1 MAU408   0.0000
   113 H55         34.9117     1.3192    -7.6724 H            1 MAU408   0.0000
   114 H56         35.9515    -1.4002    -7.7467 H            1 MAU408   0.0000
   115 H57         35.9680     0.7129    -5.6666 H            1 MAU408   0.0000
   116 H58         36.8444    -0.8571    -4.2118 H            1 MAU408   0.0000
   117 H59         37.2387    -3.0918    -4.7289 H            1 MAU408   0.0000
   118 H60         35.9946    -3.0283    -5.7847 H            1 MAU408   0.0000
   119 H61         37.5041    -2.6478    -6.2778 H            1 MAU408   0.0000
   120 H62         37.5582   -11.4974     2.4360 H            1 MAU408   0.0000
@<TRIPOS>BOND
     1    1    2       2
     2    1   27       1
     3    1   29       1
     4    2    3       1
     5    2    6       1
     6    3    4       1
     7    3   12       2
     8    4    5       2
     9    5   27       1
    10    6    7       1
    11    6   13       2
    12    7   14       2
    13    7   30       1
    14    8    9       1
    15    8   23       1
    16    8   34       1
    17    9   24       2
    18    9   36       1
    19   10   11       1
    20   10   25       2
    21   11   37       1
    22   14   15       1
    23   15   16       2
    24   16   17       1
    25   17   18       2
    26   18   19       1
    27   19   20       1
    28   19   32       1
    29   20   21       1
    30   20   26       1
    31   21   22       1
    32   21   31       1
    33   22   23       1
    34   22   32       1
    35   23   33       1
    36   24   25       1
    37   27   28       1
    38   34   35       1
    39   37   38      am
    40   38   39       2
    41   38   42       1
    42   40   41       1
    43   40   42       1
    44   42   43       1
    45   43   44       1
    46   43   45       1
    47   43   53       1
    48   45   46       1
    49   45   47       1
    50   47   48       1
    51   47   49       1
    52   49   50       1
    53   49   51       1
    54   49   52       1
    55   52   53       1
    56   52   54       1
    57   54   55       2
    58   55   56       1
    59   56   57       2
    60   57   58       1
    61    4   59       1
    62    5   60       1
    63    8   61       1
    64   10   62       1
    65   11   63       1
    66   11   64       1
    67   58  119       1
    68   14   65       1
    69   15   66       1
    70   16   67       1
    71   17   68       1
    72   18   69       1
    73   19   70       1
    74   20   71       1
    75   21   72       1
    76   22   73       1
    77   23   74       1
    78   24   75       1
    79   25   76       1
    80   26   77       1
    81   28   78       1
    82   28   79       1
    83   28   80       1
    84   30   81       1
    85   30   82       1
    86   30   83       1
    87   31   84       1
    88   33   85       1
    89   33   86       1
    90   33   87       1
    91   35   88       1
    92   35   89       1
    93   35   90       1
    94   36   91       1
    95   36   92       1
    96   36   93       1
    97   37   94       1
    98   40   95       1
    99   40   96       1
   100   41   97       1
   101   41   98       1
   102   41   99       1
   103   42  100       1
   104   44  101       1
   105   45  102       1
   106   46  103       1
   107   47  104       1
   108   48  105       1
   109   50  106       1
   110   50  107       1
   111   50  108       1
   112   51  109       1
   113   51  110       1
   114   51  111       1
   115   52  112       1
   116   54  113       1
   117   55  114       1
   118   56  115       1
   119   57  116       1
   120   58  117       1
   121   58  118       1
   122   29  120       1
@<TRIPOS>SUBSTRUCTURE
     1 MAU408      1 GROUP             4 B     MAU     0 **** MAU B 408
