@<TRIPOS>MOLECULE
5l3s_GNP_3_ligand
   46    48     1     0     0
SMALL
NO_CHARGES


@<TRIPOS>ATOM
     1 PG          -1.0540    10.8820    41.2340 P.3          1 GNP401   0.0000
     2 O1G         -0.9660    11.8390    40.0680 O.co2        1 GNP401   0.0000
     3 O2G         -0.9250    11.5890    42.5760 O.co2        1 GNP401  -1.0000
     4 O3G         -2.3440    10.0940    41.3000 O.co2        1 GNP401  -1.0000
     5 N3B          0.1530     9.8370    41.1260 N.3          1 GNP401   0.0000
     6 PB           0.5120     9.0990    39.7220 P.3          1 GNP401   0.0000
     7 O1B          0.6470    10.0960    38.6600 O.co2        1 GNP401   0.0000
     8 O2B         -0.5090     8.0760    39.4500 O.co2        1 GNP401  -1.0000
     9 O3A          1.8440     8.4240    39.9700 O.3          1 GNP401   0.0000
    10 PA           3.2670     8.9950    39.8980 P.3          1 GNP401   0.0000
    11 O1A          3.7500     9.0310    38.4790 O.co2        1 GNP401   0.0000
    12 O2A          3.3770    10.2660    40.6790 O.co2        1 GNP401  -1.0000
    13 O5'          4.1680     7.8920    40.5550 O.3          1 GNP401   0.0000
    14 C5'          4.0780     7.5480    41.9750 C.3          1 GNP401   0.0000
    15 C4'          5.3950     6.9320    42.4140 C.3          1 GNP401   0.0000
    16 O4'          5.5530     5.5830    41.8370 O.3          1 GNP401   0.0000
    17 C3'          6.6200     7.7090    41.9740 C.3          1 GNP401   0.0000
    18 O3'          7.6090     7.5990    42.9820 O.3          1 GNP401   0.0000
    19 C2'          7.0770     6.9580    40.7110 C.3          1 GNP401   0.0000
    20 O2'          8.4670     7.1180    40.4900 O.3          1 GNP401   0.0000
    21 C1'          6.8060     5.5260    41.1990 C.3          1 GNP401   0.0000
    22 N9           6.6990     4.5700    40.0980 N.pl3        1 GNP401   0.0000
    23 C8           5.9350     4.6520    38.9650 C.2          1 GNP401   0.0000
    24 N7           6.0500     3.6020    38.1710 N.2          1 GNP401   1.0000
    25 C5           6.9500     2.7850    38.8500 C.2          1 GNP401   0.0000
    26 C6           7.4700     1.5210    38.4970 C.2          1 GNP401   0.0000
    27 O6           7.2170     0.8900    37.4610 O.2          1 GNP401   0.0000
    28 N1           8.3700     1.0330    39.4490 N.pl3        1 GNP401   0.0000
    29 C2           8.6930     1.6970    40.6230 C.2          1 GNP401   0.0000
    30 N2           9.5630     1.1150    41.4470 N.pl3        1 GNP401   0.0000
    31 N3           8.2060     2.8860    40.9570 N.2          1 GNP401   0.0000
    32 C4           7.3550     3.3660    40.0290 C.2          1 GNP401   0.0000
    33 H3B         -0.0423     9.1107    41.7851 H            1 GNP401   0.0000
    34 H5'1         3.3367     6.8917    42.1155 H            1 GNP401   0.0000
    35 H5'2         3.8982     8.3735    42.5100 H            1 GNP401   0.0000
    36 H4'          5.4004     6.8589    43.4113 H            1 GNP401   0.0000
    37 H3'          6.3997     8.6641    41.7759 H            1 GNP401   0.0000
    38 H6           7.2556     7.9758    43.8382 H            1 GNP401   0.0000
    39 H2'          6.5326     7.1968    39.9069 H            1 GNP401   0.0000
    40 H8           8.6555     7.0759    39.5088 H            1 GNP401   0.0000
    41 H1'          7.5134     5.2374    41.8443 H            1 GNP401   0.0000
    42 H10          5.3455     5.4328    38.7578 H            1 GNP401   0.0000
    43 H11          8.8076     0.1513    39.2727 H            1 GNP401   0.0000
    44 H12          9.8193     1.5649    42.3025 H            1 GNP401   0.0000
    45 H13          9.9598     0.2282    41.2100 H            1 GNP401   0.0000
    46 H14          5.5994     3.4346    37.2941 H            1 GNP401   0.0000
@<TRIPOS>BOND
     1    1    2      ar
     2    1    3      ar
     3    1    4      ar
     4    1    5       1
     5    5    6       1
     6    6    7      ar
     7    6    8      ar
     8    6    9       1
     9    9   10       1
    10   10   11      ar
    11   10   12      ar
    12   10   13       1
    13   13   14       1
    14   14   15       1
    15   15   16       1
    16   15   17       1
    17   16   21       1
    18   17   18       1
    19   17   19       1
    20   19   20       1
    21   19   21       1
    22   21   22       1
    23   22   23       1
    24   22   32       1
    25   23   24       2
    26   24   25       1
    27   25   26       1
    28   25   32       2
    29   26   27       2
    30   26   28       1
    31   28   29       1
    32   29   30       1
    33   29   31       2
    34   31   32       1
    35   30   45       1
    36   30   44       1
    37    5   33       1
    38   28   43       1
    39   23   42       1
    40   14   34       1
    41   14   35       1
    42   15   36       1
    43   17   37       1
    44   18   38       1
    45   19   39       1
    46   20   40       1
    47   21   41       1
    48   24   46       1
@<TRIPOS>SUBSTRUCTURE
     1 GNP401      1 GROUP             4 B     GNP     0 **** GNP B 401
