@<TRIPOS>MOLECULE
4fr0_SAM_1_ligand
   50    52     1     0     0
SMALL
NO_CHARGES


@<TRIPOS>ATOM
     1 N           -3.4990    22.9540    29.8030 N.4          1 SAM401   1.0000
     2 CA          -4.4700    22.9200    30.8890 C.3          1 SAM401   0.0000
     3 C           -3.9390    22.0870    32.0360 C.2          1 SAM401   0.0000
     4 O           -4.2220    22.4110    33.2200 O.co2        1 SAM401   0.0000
     5 OXT         -3.2150    21.1020    31.7660 O.co2        1 SAM401  -1.0000
     6 CB          -5.7990    22.3870    30.3490 C.3          1 SAM401   0.0000
     7 CG          -6.9970    23.1830    30.8820 C.3          1 SAM401   0.0000
     8 SD          -8.3600    23.2600    29.8800 S.3          1 SAM401   1.0000
     9 CE          -8.4110    22.0860    28.6790 C.3          1 SAM401   0.0000
    10 C5'         -8.5360    24.7600    29.1660 C.3          1 SAM401   0.0000
    11 C4'         -7.5250    25.7440    29.7390 C.3          1 SAM401   0.0000
    12 O4'         -7.0640    26.6180    28.7140 O.3          1 SAM401   0.0000
    13 C3'         -8.1030    26.6430    30.8110 C.3          1 SAM401   0.0000
    14 O3'         -7.0390    26.9360    31.7330 O.3          1 SAM401   0.0000
    15 C2'         -8.5090    27.8940    30.0630 C.3          1 SAM401   0.0000
    16 O2'         -8.3980    29.0240    30.9150 O.3          1 SAM401   0.0000
    17 C1'         -7.4250    27.9730    29.0150 C.3          1 SAM401   0.0000
    18 N9          -7.8020    28.6800    27.7630 N.pl3        1 SAM401   0.0000
    19 C8          -8.7640    28.3260    26.8890 C.2          1 SAM401   0.0000
    20 N7          -8.7820    29.2120    25.8520 N.2          1 SAM401   0.0000
    21 C5          -7.8230    30.1380    26.0360 C.ar         1 SAM401   0.0000
    22 C6          -7.3280    31.3390    25.3200 C.ar         1 SAM401   0.0000
    23 N6          -7.8600    31.7660    24.1450 N.pl3        1 SAM401   0.0000
    24 N1          -6.2990    32.0100    25.8870 N.ar         1 SAM401   0.0000
    25 C2          -5.7590    31.6140    27.0610 C.ar         1 SAM401   0.0000
    26 N3          -6.1640    30.5360    27.7630 N.ar         1 SAM401   0.0000
    27 C4          -7.1770    29.7760    27.3060 C.ar         1 SAM401   0.0000
    28 H1          -3.9092    22.5677    28.9769 H            1 SAM401   0.0000
    29 H2          -3.2268    23.9003    29.6288 H            1 SAM401   0.0000
    30 HA          -4.6127    23.8543    31.2156 H            1 SAM401   0.0000
    31 HB1         -5.8988    21.4307    30.6239 H            1 SAM401   0.0000
    32 HB2         -5.7895    22.4477    29.3509 H            1 SAM401   0.0000
    33 HG1         -6.6893    24.1198    31.0487 H            1 SAM401   0.0000
    34 HG2         -7.2785    22.7659    31.7462 H            1 SAM401   0.0000
    35 HE1         -9.2423    22.2012    28.1353 H            1 SAM401   0.0000
    36 HE2         -7.6102    22.1794    28.0874 H            1 SAM401   0.0000
    37 HE3         -8.4108    21.1787    29.0995 H            1 SAM401   0.0000
    38 H5'1        -9.4605    25.1001    29.3380 H            1 SAM401   0.0000
    39 H5'2        -8.3903    24.6747    28.1804 H            1 SAM401   0.0000
    40 H4'         -6.7488    25.2382    30.1154 H            1 SAM401   0.0000
    41 H3'         -8.8828    26.2171    31.2697 H            1 SAM401   0.0000
    42 H15         -6.5592    27.7619    31.4368 H            1 SAM401   0.0000
    43 H2'         -9.4201    27.8136    29.6588 H            1 SAM401   0.0000
    44 H17         -7.4798    29.4121    30.8361 H            1 SAM401   0.0000
    45 H1'         -6.6310    28.4326    29.4129 H            1 SAM401   0.0000
    46 H19         -9.3704    27.5367    26.9854 H            1 SAM401   0.0000
    47 H20         -7.4938    32.5819    23.6975 H            1 SAM401   0.0000
    48 H21         -8.6178    31.2644    23.7277 H            1 SAM401   0.0000
    49 H22         -5.0075    32.1577    27.4348 H            1 SAM401   0.0000
    50 H23         -2.6947    22.4173    30.0581 H            1 SAM401   0.0000
@<TRIPOS>BOND
     1    1    2       1
     2    2    3       1
     3    2    6       1
     4    3    4      ar
     5    3    5      ar
     6    6    7       1
     7    7    8       1
     8    8    9       1
     9    8   10       1
    10   10   11       1
    11   11   12       1
    12   11   13       1
    13   12   17       1
    14   13   14       1
    15   13   15       1
    16   15   16       1
    17   15   17       1
    18   17   18       1
    19   18   19       1
    20   18   27       1
    21   19   20       2
    22   20   21       1
    23   21   22      ar
    24   21   27      ar
    25   22   23       1
    26   22   24      ar
    27   24   25      ar
    28   25   26      ar
    29   26   27      ar
    30    1   28       1
    31    1   29       1
    32    2   30       1
    33    1   50       1
    34    6   31       1
    35    6   32       1
    36    7   33       1
    37    7   34       1
    38    9   35       1
    39    9   36       1
    40    9   37       1
    41   10   38       1
    42   10   39       1
    43   11   40       1
    44   13   41       1
    45   14   42       1
    46   15   43       1
    47   16   44       1
    48   17   45       1
    49   19   46       1
    50   23   47       1
    51   23   48       1
    52   25   49       1
@<TRIPOS>SUBSTRUCTURE
     1 SAM401      1 GROUP             4 A     SAM     0 **** SAM A 401
