@<TRIPOS>MOLECULE
3h0l_ADP_4_ligand
   39    41     1     0     0
SMALL
NO_CHARGES


@<TRIPOS>ATOM
     1 PB        -136.8340    10.2770    15.8960 P.3          1 ADP704   0.0000
     2 O1B       -138.1000    10.7920    16.5600 O.co2        1 ADP704   0.0000
     3 O2B       -135.5360    10.7910    16.4990 O.co2        1 ADP704  -1.0000
     4 O3B       -136.8290     8.7640    15.7140 O.co2        1 ADP704  -1.0000
     5 PA        -136.8000    10.0750    13.0300 P.3          1 ADP704   0.0000
     6 O1A       -137.1990     8.6320    13.2560 O.co2        1 ADP704   0.0000
     7 O2A       -137.4890    10.8210    11.8990 O.co2        1 ADP704  -1.0000
     8 O3A       -136.9300    10.9330    14.4060 O.3          1 ADP704   0.0000
     9 O5'       -135.2010    10.1110    12.7720 O.3          1 ADP704   0.0000
    10 C5'       -134.4520    11.3160    12.9640 C.3          1 ADP704   0.0000
    11 C4'       -133.3390    11.3840    11.9350 C.3          1 ADP704   0.0000
    12 O4'       -133.1650    10.0910    11.3670 O.3          1 ADP704   0.0000
    13 C3'       -133.6540    12.3090    10.7700 C.3          1 ADP704   0.0000
    14 O3'       -132.4440    12.9500    10.3540 O.3          1 ADP704   0.0000
    15 C2'       -134.0920    11.4150     9.6300 C.3          1 ADP704   0.0000
    16 O2'       -133.6770    11.9660     8.3790 O.3          1 ADP704   0.0000
    17 C1'       -133.3240    10.1420     9.9420 C.3          1 ADP704   0.0000
    18 N9        -133.9980     8.9240     9.4270 N.pl3        1 ADP704   0.0000
    19 C8        -135.2480     8.5080     9.7130 C.2          1 ADP704   0.0000
    20 N7        -135.5460     7.3540     9.0730 N.2          1 ADP704   0.0000
    21 C5        -134.4490     7.0090     8.3710 C.ar         1 ADP704   0.0000
    22 C6        -134.0640     5.8920     7.4850 C.ar         1 ADP704   0.0000
    23 N6        -134.9530     4.9170     7.2310 N.pl3        1 ADP704   0.0000
    24 N1        -132.8280     5.8980     6.9410 N.ar         1 ADP704   0.0000
    25 C2        -131.9430     6.8780     7.1960 C.ar         1 ADP704   0.0000
    26 N3        -132.2150     7.9280     7.9970 N.ar         1 ADP704   0.0000
    27 C4        -133.4280     8.0430     8.6050 C.ar         1 ADP704   0.0000
    28 H5'1      -134.0580    11.3215    13.8831 H            1 ADP704   0.0000
    29 H5'2      -135.0560    12.1056    12.8555 H            1 ADP704   0.0000
    30 H4'       -132.4900    11.6751    12.3760 H            1 ADP704   0.0000
    31 H3'       -134.3607    12.9750    11.0087 H            1 ADP704   0.0000
    32 H5        -132.6376    13.5620     9.5872 H            1 ADP704   0.0000
    33 H2'       -135.0795    11.2583     9.6491 H            1 ADP704   0.0000
    34 H7        -134.0873    12.8702     8.2605 H            1 ADP704   0.0000
    35 H1'       -132.4183    10.2059     9.5228 H            1 ADP704   0.0000
    36 H9        -135.8764     8.9919    10.3221 H            1 ADP704   0.0000
    37 H10       -134.7030     4.1559     6.6325 H            1 ADP704   0.0000
    38 H11       -135.8646     4.9525     7.6405 H            1 ADP704   0.0000
    39 H12       -131.0394     6.8254     6.7709 H            1 ADP704   0.0000
@<TRIPOS>BOND
     1    1    2      ar
     2    1    3      ar
     3    1    4      ar
     4    1    8       1
     5    5    6      ar
     6    5    7      ar
     7    5    8       1
     8    5    9       1
     9    9   10       1
    10   10   11       1
    11   11   12       1
    12   11   13       1
    13   12   17       1
    14   13   14       1
    15   13   15       1
    16   15   16       1
    17   15   17       1
    18   17   18       1
    19   18   19       1
    20   18   27       1
    21   19   20       2
    22   20   21       1
    23   21   22      ar
    24   21   27      ar
    25   22   23       1
    26   22   24      ar
    27   24   25      ar
    28   25   26      ar
    29   26   27      ar
    30   25   39       1
    31   23   38       1
    32   23   37       1
    33   10   28       1
    34   10   29       1
    35   11   30       1
    36   13   31       1
    37   14   32       1
    38   15   33       1
    39   16   34       1
    40   17   35       1
    41   19   36       1
@<TRIPOS>SUBSTRUCTURE
     1 ADP704      1 GROUP             4 K     ADP     0 **** ADP K 704
