@<TRIPOS>MOLECULE
4iz0_2BI_2_ligand
   26    27     1     0     0
SMALL
NO_CHARGES


@<TRIPOS>ATOM
     1 C1         -25.5020    45.2160    30.8510 C.ar         1 2BI602   0.0000
     2 C2         -25.0040    43.9330    30.6090 C.ar         1 2BI602   0.0000
     3 C3         -24.9340    43.0070    31.6610 C.ar         1 2BI602   0.0000
     4 C4         -25.3550    43.3630    32.9460 C.ar         1 2BI602   0.0000
     5 C5         -25.8510    44.6470    33.1860 C.ar         1 2BI602   0.0000
     6 C6         -25.9240    45.5720    32.1430 C.ar         1 2BI602   0.0000
     7 S7         -25.5950    46.4320    29.5740 S.o2         1 2BI602   0.0000
     8 O8         -24.9030    45.9160    28.4060 O.2          1 2BI602   0.0000
     9 O9         -25.1700    47.7050    30.1380 O.2          1 2BI602   0.0000
    10 N10        -27.2110    46.5480    29.2650 N.pl3        1 2BI602   0.0000
    11 C11        -28.1350    47.1150    30.1130 C.2          1 2BI602   0.0000
    12 N12        -29.4280    46.7650    30.0450 N.2          1 2BI602   0.0000
    13 O13        -30.0740    47.5160    31.0240 O.2          1 2BI602   0.0000
    14 C14        -29.1650    48.3020    31.6600 C.2          1 2BI602   0.0000
    15 C15        -27.9250    48.0830    31.1190 C.2          1 2BI602   0.0000
    16 C16        -29.6820    49.1690    32.7320 C.3          1 2BI602   0.0000
    17 CL7        -24.4770    43.3740    29.0620 Cl           1 2BI602   0.0000
    18 CL8        -25.2370    42.1700    34.1900 Cl           1 2BI602   0.0000
    19 CL9        -26.3890    45.1520    34.7490 Cl           1 2BI602   0.0000
    20 H1         -24.5809    42.0870    31.4907 H            1 2BI602   0.0000
    21 H2         -26.2779    46.4912    32.3160 H            1 2BI602   0.0000
    22 H3         -27.5441    46.1791    28.3973 H            1 2BI602   0.0000
    23 H4         -27.0612    48.5142    31.3796 H            1 2BI602   0.0000
    24 H5         -28.9297    49.6975    33.1253 H            1 2BI602   0.0000
    25 H6         -30.3664    49.7931    32.3550 H            1 2BI602   0.0000
    26 H7         -30.1010    48.6052    33.4437 H            1 2BI602   0.0000
@<TRIPOS>BOND
     1    1    2      ar
     2    1    6      ar
     3    1    7       1
     4    2    3      ar
     5    2   17       1
     6    3    4      ar
     7    4    5      ar
     8    4   18       1
     9    5    6      ar
    10    5   19       1
    11    7    8       2
    12    7    9       2
    13    7   10       1
    14   10   11       1
    15   11   12       2
    16   11   15       1
    17   12   13       1
    18   13   14       1
    19   14   15       2
    20   14   16       1
    21    3   20       1
    22    6   21       1
    23   10   22       1
    24   15   23       1
    25   16   24       1
    26   16   25       1
    27   16   26       1
@<TRIPOS>SUBSTRUCTURE
     1 2BI602      1 GROUP             4 A     2BI     0 **** 2BI A 602
