@<TRIPOS>MOLECULE
1kph_SAH_4_ligand
   46    48     1     0     0
SMALL
NO_CHARGES


@<TRIPOS>ATOM
     1 N           15.6200    75.9220    98.3150 N.4          1 SAH2900   1.0000
     2 CA          15.0250    74.7360    97.7030 C.3          1 SAH2900   0.0000
     3 CB          14.0550    75.0990    96.5610 C.3          1 SAH2900   0.0000
     4 CG          14.5880    75.9960    95.4260 C.3          1 SAH2900   0.0000
     5 SD          13.3690    76.3060    94.1300 S.3          1 SAH2900   0.0000
     6 C           16.1070    73.7910    97.1630 C.2          1 SAH2900   0.0000
     7 O           17.2720    74.2120    97.0760 O.co2        1 SAH2900   0.0000
     8 OXT         15.7760    72.6440    96.8110 O.co2        1 SAH2900  -1.0000
     9 C5'         12.8720    78.0360    94.4120 C.3          1 SAH2900   0.0000
    10 C4'         12.1060    78.1740    95.7170 C.3          1 SAH2900   0.0000
    11 O4'         12.0390    79.5410    96.2110 O.3          1 SAH2900   0.0000
    12 C3'         10.6520    77.6800    95.6460 C.3          1 SAH2900   0.0000
    13 O3'         10.3800    76.8770    96.8190 O.3          1 SAH2900   0.0000
    14 C2'          9.8340    78.9540    95.6350 C.3          1 SAH2900   0.0000
    15 O2'          8.5120    78.7290    96.1480 O.3          1 SAH2900   0.0000
    16 C1'         10.6570    79.8440    96.4970 C.3          1 SAH2900   0.0000
    17 N9          10.4080    81.2800    96.3400 N.pl3        1 SAH2900   0.0000
    18 C8          10.4970    82.1020    95.2590 C.2          1 SAH2900   0.0000
    19 N7          10.2170    83.3520    95.4540 N.2          1 SAH2900   0.0000
    20 C5           9.9100    83.3720    96.8110 C.ar         1 SAH2900   0.0000
    21 C6           9.4880    84.4780    97.7990 C.ar         1 SAH2900   0.0000
    22 N6           9.3340    85.7590    97.4440 N.pl3        1 SAH2900   0.0000
    23 N1           9.2690    84.0940    99.0950 N.ar         1 SAH2900   0.0000
    24 C2           9.4290    82.7940    99.4470 C.ar         1 SAH2900   0.0000
    25 N3           9.7980    81.7390    98.6720 N.ar         1 SAH2900   0.0000
    26 C4          10.0220    82.1100    97.3610 C.ar         1 SAH2900   0.0000
    27 H1          16.2403    75.6432    99.0482 H            1 SAH2900   0.0000
    28 H2          16.1300    76.4337    97.6235 H            1 SAH2900   0.0000
    29 HA          14.5086    74.2482    98.4069 H            1 SAH2900   0.0000
    30 HB1         13.2734    75.5690    96.9711 H            1 SAH2900   0.0000
    31 HB2         13.7486    74.2424    96.1458 H            1 SAH2900   0.0000
    32 HG1         15.3824    75.5492    95.0145 H            1 SAH2900   0.0000
    33 HG2         14.8649    76.8733    95.8180 H            1 SAH2900   0.0000
    34 H5'1        12.2893    78.3365    93.6569 H            1 SAH2900   0.0000
    35 H5'2        13.6902    78.6096    94.4503 H            1 SAH2900   0.0000
    36 H4'         12.5794    77.6253    96.4061 H            1 SAH2900   0.0000
    37 H3'         10.4972    77.1519    94.8110 H            1 SAH2900   0.0000
    38 H12          9.6965    76.1820    96.5960 H            1 SAH2900   0.0000
    39 H2'          9.7847    79.3233    94.7070 H            1 SAH2900   0.0000
    40 H14          8.5372    77.9906    96.8219 H            1 SAH2900   0.0000
    41 H1'         10.4785    79.6019    97.4507 H            1 SAH2900   0.0000
    42 H16         10.7651    81.7584    94.3590 H            1 SAH2900   0.0000
    43 H17          9.0584    86.4370    98.1254 H            1 SAH2900   0.0000
    44 H18          9.4945    86.0383    96.4973 H            1 SAH2900   0.0000
    45 H19          9.2513    82.5822   100.4080 H            1 SAH2900   0.0000
    46 H20         14.8970    76.5008    98.6921 H            1 SAH2900   0.0000
@<TRIPOS>BOND
     1    1    2       1
     2    2    3       1
     3    2    6       1
     4    3    4       1
     5    4    5       1
     6    5    9       1
     7    6    7      ar
     8    6    8      ar
     9    9   10       1
    10   10   11       1
    11   10   12       1
    12   11   16       1
    13   12   13       1
    14   12   14       1
    15   14   15       1
    16   14   16       1
    17   16   17       1
    18   17   18       1
    19   17   26       1
    20   18   19       2
    21   19   20       1
    22   20   21      ar
    23   20   26      ar
    24   21   22       1
    25   21   23      ar
    26   23   24      ar
    27   24   25      ar
    28   25   26      ar
    29    1   27       1
    30    1   28       1
    31    2   29       1
    32    3   30       1
    33    3   31       1
    34    4   32       1
    35    4   33       1
    36    1   46       1
    37    9   34       1
    38    9   35       1
    39   10   36       1
    40   12   37       1
    41   13   38       1
    42   14   39       1
    43   15   40       1
    44   16   41       1
    45   18   42       1
    46   22   43       1
    47   22   44       1
    48   24   45       1
@<TRIPOS>SUBSTRUCTURE
     1 SAH2900     1 GROUP             4 B     SAH     0 **** SAH B2900
