@<TRIPOS>MOLECULE
5aq1_NDP_2_ligand
   73    77     1     0     0
SMALL
NO_CHARGES


@<TRIPOS>ATOM
     1 PA          74.0290   124.8680   134.0460 P.3          1 NDP551   0.0000
     2 O1A         73.9100   124.5860   135.5260 O.co2        1 NDP551   0.0000
     3 O2A         75.3030   125.4880   133.5010 O.co2        1 NDP551  -1.0000
     4 O5B         72.7500   125.7490   133.6360 O.3          1 NDP551   0.0000
     5 C5B         72.5770   126.1590   132.2840 C.3          1 NDP551   0.0000
     6 C4B         71.9670   127.5530   132.2220 C.3          1 NDP551   0.0000
     7 O4B         70.6040   127.4620   132.6470 O.3          1 NDP551   0.0000
     8 C3B         72.6420   128.5880   133.1200 C.3          1 NDP551   0.0000
     9 O3B         73.6170   129.3810   132.4360 O.3          1 NDP551   0.0000
    10 C2B         71.4910   129.4440   133.5940 C.3          1 NDP551   0.0000
    11 O2B         71.3040   130.5360   132.6990 O.3          1 NDP551   0.0000
    12 C1B         70.2770   128.5340   133.5360 C.3          1 NDP551   0.0000
    13 N9A         69.9430   128.0460   134.9000 N.pl3        1 NDP551   0.0000
    14 C8A         70.7790   127.4630   135.7910 C.2          1 NDP551   0.0000
    15 N7A         70.1230   127.1560   136.9390 N.2          1 NDP551   0.0000
    16 C5A         68.8450   127.5480   136.7870 C.ar         1 NDP551   0.0000
    17 C6A         67.6130   127.5250   137.6050 C.ar         1 NDP551   0.0000
    18 N6A         67.6330   127.0010   138.8540 N.pl3        1 NDP551   0.0000
    19 N1A         66.4770   128.0390   137.0640 N.ar         1 NDP551   0.0000
    20 C2A         66.4450   128.5630   135.8210 C.ar         1 NDP551   0.0000
    21 N3A         67.5330   128.6130   135.0270 N.ar         1 NDP551   0.0000
    22 C4A         68.7320   128.1340   135.4440 C.ar         1 NDP551   0.0000
    23 O3          73.6780   123.5280   133.2200 O.3          1 NDP551   0.0000
    24 PN          74.7180   122.8100   132.2190 P.3          1 NDP551   0.0000
    25 O1N         75.0710   123.7260   131.0730 O.co2        1 NDP551   0.0000
    26 O2N         75.8220   122.1960   133.0510 O.co2        1 NDP551  -1.0000
    27 O5D         73.8070   121.6220   131.6320 O.3          1 NDP551   0.0000
    28 C5D         72.6740   121.8780   130.8040 C.3          1 NDP551   0.0000
    29 C4D         71.9110   120.5780   130.5780 C.3          1 NDP551   0.0000
    30 O4D         72.7550   119.6200   129.9300 O.3          1 NDP551   0.0000
    31 C3D         71.4730   119.9570   131.8930 C.3          1 NDP551   0.0000
    32 O3D         70.1550   119.4140   131.7680 O.3          1 NDP551   0.0000
    33 C2D         72.4840   118.8580   132.1510 C.3          1 NDP551   0.0000
    34 O2D         71.9300   117.7930   132.9390 O.3          1 NDP551   0.0000
    35 C1D         72.8910   118.4430   130.7380 C.3          1 NDP551   0.0000
    36 N1N         74.2490   117.8760   130.7060 N.ar         1 NDP551   1.0000
    37 C2N         75.3260   118.6780   130.7160 C.ar         1 NDP551   0.0000
    38 C3N         76.6210   118.1670   130.6960 C.ar         1 NDP551   0.0000
    39 C7N         77.8090   119.0870   130.7020 C.2          1 NDP551   0.0000
    40 O7N         78.8060   118.7550   130.0790 O.2          1 NDP551   0.0000
    41 N7N         77.7730   120.2370   131.3810 N.am         1 NDP551   0.0000
    42 C4N         76.8620   116.6770   130.6590 C.ar         1 NDP551   0.0000
    43 C5N         75.6140   115.9220   130.6540 C.ar         1 NDP551   0.0000
    44 C6N         74.3730   116.5440   130.6740 C.ar         1 NDP551   0.0000
    45 P2B         70.5580   131.9010   133.1140 P.3          1 NDP551   0.0000
    46 O1X         70.6500   131.9890   134.6180 O.co2        1 NDP551   0.0000
    47 O2X         71.3890   132.9340   132.3880 O.co2        1 NDP551  -1.0000
    48 O3X         69.1450   131.7360   132.6010 O.co2        1 NDP551  -1.0000
    49 H5B1        71.9704   125.5136   131.8197 H            1 NDP551   0.0000
    50 H5B2        73.4663   126.1685   131.8269 H            1 NDP551   0.0000
    51 H4B         71.9919   127.8772   131.2763 H            1 NDP551   0.0000
    52 H3B         73.0668   128.1309   133.9015 H            1 NDP551   0.0000
    53 H5          73.1772   130.1938   132.0541 H            1 NDP551   0.0000
    54 H2B         71.6487   129.7696   134.5263 H            1 NDP551   0.0000
    55 H1B         69.4993   129.0434   133.1676 H            1 NDP551   0.0000
    56 H8A         71.7487   127.2829   135.6258 H            1 NDP551   0.0000
    57 H6A1        66.7979   126.9873   139.4039 H            1 NDP551   0.0000
    58 H6A2        68.4829   126.6279   139.2261 H            1 NDP551   0.0000
    59 H2A         65.5806   128.9284   135.4755 H            1 NDP551   0.0000
    60 H5D1        72.9788   122.2436   129.9246 H            1 NDP551   0.0000
    61 H5D2        72.0761   122.5426   131.2521 H            1 NDP551   0.0000
    62 H4D         71.1085   120.7559   130.0085 H            1 NDP551   0.0000
    63 H3D         71.5020   120.6365   132.6261 H            1 NDP551   0.0000
    64 H16         69.5162   120.1428   131.5213 H            1 NDP551   0.0000
    65 H2D         73.2767   119.2421   132.6244 H            1 NDP551   0.0000
    66 H18         71.5252   117.1069   132.3345 H            1 NDP551   0.0000
    67 H1D         72.2473   117.7521   130.4089 H            1 NDP551   0.0000
    68 H2N         75.1944   119.6690   130.7384 H            1 NDP551   0.0000
    69 H7N1        78.5681   120.8435   131.3797 H            1 NDP551   0.0000
    70 H7N2        76.9510   120.4913   131.8905 H            1 NDP551   0.0000
    71 H4N         77.7696   116.2575   130.6402 H            1 NDP551   0.0000
    72 H5N         75.6536   114.9230   130.6355 H            1 NDP551   0.0000
    73 H6N         73.5473   115.9799   130.6642 H            1 NDP551   0.0000
@<TRIPOS>BOND
     1    1    2      ar
     2    1    3      ar
     3    1    4       1
     4    1   23       1
     5    4    5       1
     6    5    6       1
     7    6    7       1
     8    6    8       1
     9    7   12       1
    10    8    9       1
    11    8   10       1
    12   10   11       1
    13   10   12       1
    14   11   45       1
    15   12   13       1
    16   13   14       1
    17   13   22       1
    18   14   15       2
    19   15   16       1
    20   16   17      ar
    21   16   22      ar
    22   17   18       1
    23   17   19      ar
    24   19   20      ar
    25   20   21      ar
    26   21   22      ar
    27   23   24       1
    28   24   25      ar
    29   24   26      ar
    30   24   27       1
    31   27   28       1
    32   28   29       1
    33   29   30       1
    34   29   31       1
    35   30   35       1
    36   31   32       1
    37   31   33       1
    38   33   34       1
    39   33   35       1
    40   35   36       1
    41   36   37      ar
    42   36   44      ar
    43   37   38      ar
    44   38   39       1
    45   38   42      ar
    46   39   40       2
    47   39   41      am
    48   42   43      ar
    49   43   44      ar
    50   45   46      ar
    51   45   47      ar
    52   45   48      ar
    53   43   72       1
    54    5   49       1
    55    5   50       1
    56    6   51       1
    57    8   52       1
    58    9   53       1
    59   10   54       1
    60   12   55       1
    61   14   56       1
    62   18   57       1
    63   18   58       1
    64   20   59       1
    65   44   73       1
    66   28   60       1
    67   28   61       1
    68   29   62       1
    69   31   63       1
    70   32   64       1
    71   33   65       1
    72   34   66       1
    73   35   67       1
    74   37   68       1
    75   41   69       1
    76   41   70       1
    77   42   71       1
@<TRIPOS>SUBSTRUCTURE
     1 NDP551      1 GROUP             4 B     NDP     0 **** NDP B 551
