@<TRIPOS>MOLECULE
5ewj_QEL_1_ligand
   52    54     1     0     0
SMALL
NO_CHARGES


@<TRIPOS>ATOM
     1 C1          80.2790     1.0070   -32.3670 C.ar         1 QEL503   0.0000
     2 N1          85.8880     6.5160   -32.0490 N.4          1 QEL503   1.0000
     3 O1          85.6360     9.4850   -32.8330 O.3          1 QEL503   0.0000
     4 C2          90.0250    10.2150   -30.8360 C.ar         1 QEL503   0.0000
     5 O2          91.5580    11.7410   -31.8950 O.3          1 QEL503   0.0000
     6 C3          89.4340    11.3410   -32.8730 C.ar         1 QEL503   0.0000
     7 C4          82.2790     2.6020   -31.2350 C.ar         1 QEL503   0.0000
     8 C5          81.0890     3.1620   -31.7040 C.ar         1 QEL503   0.0000
     9 C6          80.0950     2.3690   -32.2590 C.ar         1 QEL503   0.0000
    10 C7          83.2600     3.4320   -30.4400 C.3          1 QEL503   0.0000
    11 C8          84.3830     4.0830   -31.2590 C.3          1 QEL503   0.0000
    12 C9          83.8480     5.0830   -32.2930 C.3          1 QEL503   0.0000
    13 C01         81.4770     0.4380   -31.9420 C.ar         1 QEL503   0.0000
    14 C02         82.4670     1.2310   -31.3800 C.ar         1 QEL503   0.0000
    15 C10         84.9720     5.8510   -33.0080 C.3          1 QEL503   0.0000
    16 C11         86.4670     5.5340   -31.1210 C.3          1 QEL503   0.0000
    17 C12         85.3890     4.7810   -30.3470 C.3          1 QEL503   0.0000
    18 C13         86.9360     7.4540   -32.5010 C.3          1 QEL503   0.0000
    19 C14         86.6480     8.8880   -32.0110 C.3          1 QEL503   0.0000
    20 C15         87.9130     9.7260   -31.9090 C.ar         1 QEL503   0.0000
    21 C16         88.8210     9.5290   -30.8720 C.ar         1 QEL503   0.0000
    22 C18         90.3420    11.1150   -31.8490 C.ar         1 QEL503   0.0000
    23 C19         88.2360    10.6520   -32.8970 C.ar         1 QEL503   0.0000
    24 C24         87.1940     7.4020   -33.9990 C.3          1 QEL503   0.0000
    25 H1          79.5562     0.4307   -32.7484 H            1 QEL503   0.0000
    26 H2          86.0668     9.9554   -33.6032 H            1 QEL503   0.0000
    27 H3          90.6651    10.0633   -30.0829 H            1 QEL503   0.0000
    28 H4          92.2428    11.5557   -31.1902 H            1 QEL503   0.0000
    29 H5          89.6459    12.0017   -33.5931 H            1 QEL503   0.0000
    30 H6          80.9510     4.1503   -31.6388 H            1 QEL503   0.0000
    31 H7          79.2448     2.7855   -32.5808 H            1 QEL503   0.0000
    32 H8          83.6817     2.8390   -29.7541 H            1 QEL503   0.0000
    33 H9          82.7493     4.1600   -29.9826 H            1 QEL503   0.0000
    34 H10         84.8648     3.3584   -31.7517 H            1 QEL503   0.0000
    35 H11         83.2569     5.7409   -31.8265 H            1 QEL503   0.0000
    36 H12         83.3161     4.5833   -32.9767 H            1 QEL503   0.0000
    37 H13         81.6242    -0.5460   -32.0423 H            1 QEL503   0.0000
    38 H14         83.3234     0.8135   -31.0764 H            1 QEL503   0.0000
    39 H15         85.4985     5.2085   -33.5648 H            1 QEL503   0.0000
    40 H16         84.5628     6.5464   -33.5987 H            1 QEL503   0.0000
    41 H17         87.0577     6.0121   -30.4711 H            1 QEL503   0.0000
    42 H18         87.0097     4.8761   -31.6432 H            1 QEL503   0.0000
    43 H19         85.8308     4.0920   -29.7724 H            1 QEL503   0.0000
    44 H20         84.8975     5.4321   -29.7686 H            1 QEL503   0.0000
    45 H21         87.7847     7.1672   -32.0566 H            1 QEL503   0.0000
    46 H22         86.2703     8.8128   -31.0881 H            1 QEL503   0.0000
    47 H23         88.6011     8.8824   -30.1416 H            1 QEL503   0.0000
    48 H24         87.5880    10.8222   -33.6393 H            1 QEL503   0.0000
    49 H25         87.9105     8.0578   -34.2368 H            1 QEL503   0.0000
    50 H26         87.4870     6.4808   -34.2550 H            1 QEL503   0.0000
    51 H27         86.3541     7.6332   -34.4901 H            1 QEL503   0.0000
    52 H28         85.2863     7.0733   -31.4769 H            1 QEL503   0.0000
@<TRIPOS>BOND
     1    1    9      ar
     2    1   13      ar
     3    2   15       1
     4    2   16       1
     5    2   18       1
     6    3   19       1
     7    4   21      ar
     8    4   22      ar
     9    5   22       1
    10    6   22      ar
    11    6   23      ar
    12    7    8      ar
    13    7   10       1
    14    7   14      ar
    15    8    9      ar
    16   10   11       1
    17   11   12       1
    18   11   17       1
    19   12   15       1
    20   13   14      ar
    21   16   17       1
    22   18   19       1
    23   18   24       1
    24   19   20       1
    25   20   21      ar
    26   20   23      ar
    27    1   25       1
    28    3   26       1
    29    4   27       1
    30    5   28       1
    31    6   29       1
    32    8   30       1
    33    9   31       1
    34   10   32       1
    35   10   33       1
    36   11   34       1
    37   12   35       1
    38   12   36       1
    39   13   37       1
    40   14   38       1
    41   15   39       1
    42   15   40       1
    43   16   41       1
    44   16   42       1
    45   17   43       1
    46   17   44       1
    47   18   45       1
    48   19   46       1
    49   21   47       1
    50   23   48       1
    51   24   49       1
    52   24   50       1
    53   24   51       1
    54    2   52       1
@<TRIPOS>SUBSTRUCTURE
     1 QEL503      1 GROUP             4 B     QEL     0 **** QEL B 503
