@<TRIPOS>MOLECULE
1t9a_1TB_1_ligand
   43    44     1     0     0
SMALL
NO_CHARGES


@<TRIPOS>ATOM
     1 C4         -12.7700   107.6730    56.1260 C.ar         1 1TB695   0.0000
     2 C5         -11.6210   108.4460    55.7970 C.ar         1 1TB695   0.0000
     3 C6         -10.5810   107.8720    55.0300 C.ar         1 1TB695   0.0000
     4 C1         -10.6840   106.5170    54.5850 C.ar         1 1TB695   0.0000
     5 C2         -11.8710   105.7140    54.9240 C.ar         1 1TB695   0.0000
     6 C3         -12.8920   106.3290    55.6970 C.ar         1 1TB695   0.0000
     7 C11         -9.4960   105.9750    53.7480 C.2          1 1TB695   0.0000
     8 O12         -8.3290   105.6690    54.4750 O.3          1 1TB695   0.0000
     9 C13         -7.0810   105.8430    53.8810 C.3          1 1TB695   0.0000
    10 O11         -9.5960   105.8070    52.5170 O.2          1 1TB695   0.0000
    11 S7         -12.0970   103.9810    54.4050 S.o2         1 1TB695   0.0000
    12 N8         -10.8620   103.2080    54.2220 N.pl3        1 1TB695  -1.0000
    13 C9          -9.8910   102.9250    55.2030 C.2          1 1TB695   0.0000
    14 O7A        -12.9250   103.3000    55.4260 O.2          1 1TB695   0.0000
    15 O7B        -12.7770   103.9910    53.1170 O.2          1 1TB695   0.0000
    16 O9         -10.0300   103.3460    56.3640 O.2          1 1TB695   0.0000
    17 N10         -8.7710   102.1830    54.8380 N.am         1 1TB695   0.0000
    18 C2'         -7.6980   101.8170    55.6520 C.ar         1 1TB695   0.0000
    19 N1'         -6.5860   101.0460    55.1420 N.ar         1 1TB695   0.0000
    20 C6'         -5.5040   100.6880    55.9910 C.ar         1 1TB695   0.0000
    21 N5'         -5.5710   101.1160    57.3260 N.ar         1 1TB695   0.0000
    22 C4'         -6.6420   101.8710    57.8740 C.ar         1 1TB695   0.0000
    23 N3'         -7.7240   102.2230    57.0010 N.ar         1 1TB695   0.0000
    24 C10         -8.6300   101.7110    53.4740 C.3          1 1TB695   0.0000
    25 O4'         -6.6640   102.2630    59.2180 O.3          1 1TB695   0.0000
    26 C5'         -5.9290   102.1970    60.4270 C.3          1 1TB695   0.0000
    27 C7'         -4.3280    99.8800    55.4470 C.3          1 1TB695   0.0000
    28 H1         -13.5021   108.0852    56.6683 H            1 1TB695   0.0000
    29 H2         -11.5494   109.3937    56.1079 H            1 1TB695   0.0000
    30 H3          -9.7731   108.4139    54.7987 H            1 1TB695   0.0000
    31 H4         -13.7082   105.8055    55.9416 H            1 1TB695   0.0000
    32 H5          -6.3646   105.5818    54.5279 H            1 1TB695   0.0000
    33 H6          -7.0177   105.2696    53.0642 H            1 1TB695   0.0000
    34 H7          -6.9648   106.8025    53.6245 H            1 1TB695   0.0000
    35 H8          -7.7755   101.1993    53.3850 H            1 1TB695   0.0000
    36 H9          -9.4004   101.1156    53.2460 H            1 1TB695   0.0000
    37 H10         -8.6169   102.4927    52.8505 H            1 1TB695   0.0000
    38 H5'1        -6.4287   102.6778    61.1475 H            1 1TB695   0.0000
    39 H5'2        -5.8042   101.2401    60.6894 H            1 1TB695   0.0000
    40 H5'3        -5.0352   102.6265    60.2976 H            1 1TB695   0.0000
    41 H7'1        -3.6655    99.7214    56.1791 H            1 1TB695   0.0000
    42 H7'2        -4.6586    99.0021    55.1007 H            1 1TB695   0.0000
    43 H7'3        -3.8898   100.3874    54.7050 H            1 1TB695   0.0000
@<TRIPOS>BOND
     1    1    2      ar
     2    1    6      ar
     3    2    3      ar
     4    3    4      ar
     5    4    5      ar
     6    4    7       1
     7    5    6      ar
     8    5   11       1
     9    7    8       1
    10    7   10       2
    11    8    9       1
    12   11   12       1
    13   11   14       2
    14   11   15       2
    15   12   13       1
    16   13   16       2
    17   13   17      am
    18   17   18       1
    19   17   24       1
    20   18   19      ar
    21   18   23      ar
    22   19   20      ar
    23   20   21      ar
    24   20   27       1
    25   21   22      ar
    26   22   23      ar
    27   22   25       1
    28   25   26       1
    29    1   28       1
    30    2   29       1
    31    3   30       1
    32    6   31       1
    33    9   32       1
    34    9   33       1
    35    9   34       1
    36   27   43       1
    37   24   35       1
    38   24   36       1
    39   24   37       1
    40   26   38       1
    41   26   39       1
    42   26   40       1
    43   27   41       1
    44   27   42       1
@<TRIPOS>SUBSTRUCTURE
     1 1TB695      1 GROUP             4 A     1TB     0 **** 1TB A 695
