@<TRIPOS>MOLECULE
1mh1_GNP_1_ligand
   45    47     1     0     0
SMALL
NO_CHARGES


@<TRIPOS>ATOM
     1 PG           5.7810    45.9970    14.2520 P.3          1 GNP200   0.0000
     2 O1G          5.8030    45.5510    12.7690 O.co2        1 GNP200   0.0000
     3 O2G          6.9640    45.6740    14.9500 O.co2        1 GNP200  -1.0000
     4 O3G          5.4630    47.5140    14.3550 O.co2        1 GNP200  -1.0000
     5 N3B          4.5030    45.3220    14.9730 N.3          1 GNP200   0.0000
     6 PB           4.3780    43.5980    15.3370 P.3          1 GNP200   0.0000
     7 O1B          3.7850    42.9200    14.1670 O.co2        1 GNP200   0.0000
     8 O2B          5.5960    43.0770    15.8630 O.co2        1 GNP200  -1.0000
     9 O3A          3.2390    43.5200    16.3900 O.3          1 GNP200   0.0000
    10 PA           3.3700    43.1710    18.0370 P.3          1 GNP200   0.0000
    11 O1A          3.9400    41.7580    18.1900 O.co2        1 GNP200   0.0000
    12 O2A          4.1300    44.3290    18.6520 O.co2        1 GNP200  -1.0000
    13 O5'          1.9040    43.1910    18.4680 O.3          1 GNP200   0.0000
    14 C5'          1.0480    44.3170    18.1670 C.3          1 GNP200   0.0000
    15 C4'         -0.1270    44.3650    19.0560 C.3          1 GNP200   0.0000
    16 O4'         -0.9550    43.1660    18.9200 O.3          1 GNP200   0.0000
    17 C3'          0.2220    44.4660    20.5490 C.3          1 GNP200   0.0000
    18 O3'         -0.8180    45.2400    21.1980 O.3          1 GNP200   0.0000
    19 C2'          0.1400    42.9790    21.0150 C.3          1 GNP200   0.0000
    20 O2'         -0.2540    42.7810    22.4010 O.3          1 GNP200   0.0000
    21 C1'         -1.0450    42.4500    20.1810 C.3          1 GNP200   0.0000
    22 N9          -1.0750    40.9780    19.8630 N.pl3        1 GNP200   0.0000
    23 C8           0.0940    40.3790    19.3440 C.2          1 GNP200   0.0000
    24 N7          -0.2970    39.0910    19.2670 N.2          1 GNP200   0.0000
    25 C5          -1.5040    38.9230    19.6930 C.2          1 GNP200   0.0000
    26 C6          -2.4530    37.8800    19.8510 C.2          1 GNP200   0.0000
    27 O6          -2.0950    36.6100    19.5220 O.2          1 GNP200   0.0000
    28 N1          -3.6820    38.0590    20.3260 N.pl3        1 GNP200   0.0000
    29 C2          -4.0620    39.4410    20.7180 C.2          1 GNP200   0.0000
    30 N2          -5.2750    39.4080    21.1670 N.pl3        1 GNP200   0.0000
    31 N3          -3.2670    40.3790    20.5950 N.2          1 GNP200   0.0000
    32 C4          -2.0700    40.1580    20.0920 C.2          1 GNP200   0.0000
    33 H3B          4.4050    45.7930    15.8497 H            1 GNP200   0.0000
    34 H5'1         0.7347    44.2414    17.2204 H            1 GNP200   0.0000
    35 H5'2         1.5726    45.1611    18.2781 H            1 GNP200   0.0000
    36 H4'         -0.6795    45.1603    18.8064 H            1 GNP200   0.0000
    37 H3'          1.1302    44.8572    20.6974 H            1 GNP200   0.0000
    38 H6          -0.6138    45.3206    22.1736 H            1 GNP200   0.0000
    39 H2'          0.9830    42.4847    20.8028 H            1 GNP200   0.0000
    40 H8           0.5608    42.7678    22.9805 H            1 GNP200   0.0000
    41 H1'         -1.8994    42.7009    20.6361 H            1 GNP200   0.0000
    42 H10          0.9701    40.7954    19.1007 H            1 GNP200   0.0000
    43 H11         -4.3228    37.2965    20.4155 H            1 GNP200   0.0000
    44 H12         -5.7141    40.2489    21.4835 H            1 GNP200   0.0000
    45 H13         -5.7734    38.5416    21.1976 H            1 GNP200   0.0000
@<TRIPOS>BOND
     1    1    2      ar
     2    1    3      ar
     3    1    4      ar
     4    1    5       1
     5    5    6       1
     6    6    7      ar
     7    6    8      ar
     8    6    9       1
     9    9   10       1
    10   10   11      ar
    11   10   12      ar
    12   10   13       1
    13   13   14       1
    14   14   15       1
    15   15   16       1
    16   15   17       1
    17   16   21       1
    18   17   18       1
    19   17   19       1
    20   19   20       1
    21   19   21       1
    22   21   22       1
    23   22   23       1
    24   22   32       1
    25   23   24       2
    26   24   25       1
    27   25   26       1
    28   25   32       2
    29   26   27       2
    30   26   28       1
    31   28   29       1
    32   29   30       1
    33   29   31       2
    34   31   32       1
    35   30   45       1
    36   30   44       1
    37    5   33       1
    38   28   43       1
    39   23   42       1
    40   14   34       1
    41   14   35       1
    42   15   36       1
    43   17   37       1
    44   18   38       1
    45   19   39       1
    46   20   40       1
    47   21   41       1
@<TRIPOS>SUBSTRUCTURE
     1 GNP200      1 GROUP             4 A     GNP     0 **** GNP A 200
