@<TRIPOS>MOLECULE
5ax3_5ID_1_ligand
   33    35     1     0     0
SMALL
NO_CHARGES


@<TRIPOS>ATOM
     1 O5'         14.5350    -5.4730   -21.0110 O.3          1 5ID401   0.0000
     2 C5'         14.6140    -5.1020   -19.6420 C.3          1 5ID401   0.0000
     3 C4'         16.0220    -4.7270   -19.2520 C.3          1 5ID401   0.0000
     4 O4'         16.0420    -4.2530   -17.8780 O.3          1 5ID401   0.0000
     5 C1'         17.2180    -4.6950   -17.2320 C.3          1 5ID401   0.0000
     6 N9          16.8320    -5.6230   -16.1510 N.pl3        1 5ID401   0.0000
     7 C8          15.5630    -5.7720   -15.7050 C.2          1 5ID401   0.0000
     8 C7          15.6450    -6.7120   -14.7050 C.2          1 5ID401   0.0000
     9 C5          17.0270    -7.1620   -14.5220 C.ar         1 5ID401   0.0000
    10 C6          17.6940    -8.0560   -13.7020 C.ar         1 5ID401   0.0000
    11 N1          19.0280    -8.1880   -13.8500 N.ar         1 5ID401   0.0000
    12 C2          19.6780    -7.4650   -14.7730 C.ar         1 5ID401   0.0000
    13 N3          19.0440    -6.5980   -15.5710 N.ar         1 5ID401   0.0000
    14 C4          17.7040    -6.4160   -15.4720 C.ar         1 5ID401   0.0000
    15 N6          17.0230    -8.7780   -12.7720 N.pl3        1 5ID401   0.0000
    16 C2'         18.0890    -5.3750   -18.2850 C.3          1 5ID401   0.0000
    17 O2'         18.9220    -4.3930   -18.8840 O.3          1 5ID401   0.0000
    18 C3'         17.0370    -5.8600   -19.2690 C.3          1 5ID401   0.0000
    19 O3'         17.5510    -6.1250   -20.5610 O.3          1 5ID401   0.0000
    20 IAE         13.9880    -7.4380   -13.5540 I            1 5ID401   0.0000
    21 H5'         14.2049    -6.4142   -21.0828 H            1 5ID401   0.0000
    22 H5'1        14.3149    -5.8722   -19.0787 H            1 5ID401   0.0000
    23 H5'2        14.0129    -4.3189   -19.4822 H            1 5ID401   0.0000
    24 H4'         16.3419    -3.9948   -19.8533 H            1 5ID401   0.0000
    25 H1'         17.7053    -3.9118   -16.8460 H            1 5ID401   0.0000
    26 H6          14.7437    -5.3008   -16.0318 H            1 5ID401   0.0000
    27 H7          20.6671    -7.5771   -14.8681 H            1 5ID401   0.0000
    28 H8          17.5168    -9.4204   -12.1859 H            1 5ID401   0.0000
    29 H9          16.0341    -8.6683   -12.6718 H            1 5ID401   0.0000
    30 H2'         18.6188    -6.1311   -17.9008 H            1 5ID401   0.0000
    31 H11         19.8811    -4.6344   -18.7362 H            1 5ID401   0.0000
    32 H3'         16.6091    -6.6893   -18.9096 H            1 5ID401   0.0000
    33 H13         17.7906    -7.0932   -20.6323 H            1 5ID401   0.0000
@<TRIPOS>BOND
     1    1    2       1
     2    2    3       1
     3    3    4       1
     4    3   18       1
     5    4    5       1
     6    5    6       1
     7    5   16       1
     8    6    7       1
     9    6   14       1
    10    7    8       2
    11    8    9       1
    12    8   20       1
    13    9   10      ar
    14    9   14      ar
    15   10   11      ar
    16   10   15       1
    17   11   12      ar
    18   12   13      ar
    19   13   14      ar
    20   16   17       1
    21   16   18       1
    22   18   19       1
    23    1   21       1
    24    2   22       1
    25    2   23       1
    26    3   24       1
    27    5   25       1
    28    7   26       1
    29   12   27       1
    30   15   28       1
    31   15   29       1
    32   16   30       1
    33   17   31       1
    34   18   32       1
    35   19   33       1
@<TRIPOS>SUBSTRUCTURE
     1 5ID401      1 GROUP             4 A     5ID     0 **** 5ID A 401
