@<TRIPOS>MOLECULE
2dw0_GM6_2_ligand
   55    56     1     0     0
SMALL
NO_CHARGES


@<TRIPOS>ATOM
     1 OAG         -1.9340    37.8470     6.7960 O.3          1 GM6901  -1.0000
     2 NAF         -3.0810    38.4980     6.4700 N.am         1 GM6901   0.0000
     3 CAD         -4.2450    37.8660     6.5450 C.2          1 GM6901   0.0000
     4 OAE         -4.3720    36.7120     6.9000 O.2          1 GM6901   0.0000
     5 CAC         -5.4640    38.7010     6.1660 C.3          1 GM6901   0.0000
     6 CAB         -6.2780    39.0850     7.4030 C.3          1 GM6901   0.0000
     7 CAK         -7.5150    39.9140     7.0080 C.2          1 GM6901   0.0000
     8 OAL         -7.4290    41.0950     6.7160 O.2          1 GM6901   0.0000
     9 NAM         -8.6590    39.2390     7.0180 N.am         1 GM6901   0.0000
    10 CAN        -10.0100    39.8130     6.7330 C.3          1 GM6901   0.0000
    11 CAY        -10.3930    40.7280     7.9310 C.2          1 GM6901   0.0000
    12 OAZ        -10.2160    40.3790     9.1080 O.2          1 GM6901   0.0000
    13 NBB        -10.9420    41.8960     7.5420 N.am         1 GM6901   0.0000
    14 CBA        -11.5100    42.8220     8.5510 C.3          1 GM6901   0.0000
    15 CAO        -11.0070    38.6660     6.6910 C.3          1 GM6901   0.0000
    16 CAP        -10.6860    37.8640     5.4110 C.2          1 GM6901   0.0000
    17 CAT         -9.7140    36.9630     5.1840 C.2          1 GM6901   0.0000
    18 NAU         -9.7790    36.5090     3.9200 N.pl3        1 GM6901   0.0000
    19 CAR        -10.7950    37.0900     3.2690 C.ar         1 GM6901   0.0000
    20 CAV        -11.3190    36.9920     1.9490 C.ar         1 GM6901   0.0000
    21 CAX        -12.4480    37.7830     1.5900 C.ar         1 GM6901   0.0000
    22 CAW        -13.0380    38.6630     2.5470 C.ar         1 GM6901   0.0000
    23 CAS        -12.4990    38.7420     3.8500 C.ar         1 GM6901   0.0000
    24 CAQ        -11.3710    37.9520     4.2200 C.ar         1 GM6901   0.0000
    25 CAA         -5.3640    39.8640     8.4060 C.3          1 GM6901   0.0000
    26 CAH         -6.0210    40.2020     9.7570 C.3          1 GM6901   0.0000
    27 CAJ         -5.0640    41.0430    10.6230 C.3          1 GM6901   0.0000
    28 CAI         -6.3940    38.9080    10.5210 C.3          1 GM6901   0.0000
    29 HAF         -3.0479    39.4526     6.1738 H            1 GM6901   0.0000
    30 HAC1        -6.0427    38.1707     5.5464 H            1 GM6901   0.0000
    31 HAC2        -5.1582    39.5342     5.7053 H            1 GM6901   0.0000
    32 HAB         -6.5902    38.2456     7.8479 H            1 GM6901   0.0000
    33 HAM         -8.6128    38.2638     7.2346 H            1 GM6901   0.0000
    34 HAN        -10.0112    40.3241     5.8735 H            1 GM6901   0.0000
    35 HBB        -10.9662    42.1381     6.5721 H            1 GM6901   0.0000
    36 HBA1       -11.8723    43.6333     8.0922 H            1 GM6901   0.0000
    37 HBA2       -12.2467    42.3629     9.0475 H            1 GM6901   0.0000
    38 HBA3       -10.7941    43.0944     9.1938 H            1 GM6901   0.0000
    39 HAO1       -11.9415    39.0200     6.6532 H            1 GM6901   0.0000
    40 HAO2       -10.9026    38.0860     7.4989 H            1 GM6901   0.0000
    41 HAT         -9.0376    36.6715     5.8604 H            1 GM6901   0.0000
    42 HAU         -9.1574    35.8339     3.5227 H            1 GM6901   0.0000
    43 HAV        -10.8999    36.3757     1.2823 H            1 GM6901   0.0000
    44 HAX        -12.8276    37.7219     0.6669 H            1 GM6901   0.0000
    45 HAW        -13.8291    39.2208     2.2959 H            1 GM6901   0.0000
    46 HAS        -12.9127    39.3583     4.5201 H            1 GM6901   0.0000
    47 HAA1        -5.0877    40.7216     7.9722 H            1 GM6901   0.0000
    48 HAA2        -4.5543    39.3055     8.5859 H            1 GM6901   0.0000
    49 HAH         -6.8535    40.7298     9.5889 H            1 GM6901   0.0000
    50 HAJ1        -5.5034    41.2547    11.4960 H            1 GM6901   0.0000
    51 HAJ2        -4.2240    40.5265    10.7892 H            1 GM6901   0.0000
    52 HAJ3        -4.8434    41.8937    10.1460 H            1 GM6901   0.0000
    53 HAI1        -6.8186    39.1471    11.3942 H            1 GM6901   0.0000
    54 HAI2        -7.0363    38.3713     9.9739 H            1 GM6901   0.0000
    55 HAI3        -5.5679    38.3698    10.6883 H            1 GM6901   0.0000
@<TRIPOS>BOND
     1    1    2       1
     2    2    3      am
     3    3    4       2
     4    3    5       1
     5    5    6       1
     6    6    7       1
     7    6   25       1
     8    7    8       2
     9    7    9      am
    10    9   10       1
    11   10   11       1
    12   10   15       1
    13   11   12       2
    14   11   13      am
    15   13   14       1
    16   15   16       1
    17   16   17       2
    18   16   24       1
    19   17   18       1
    20   18   19       1
    21   19   20      ar
    22   19   24      ar
    23   20   21      ar
    24   21   22      ar
    25   22   23      ar
    26   23   24      ar
    27   25   26       1
    28   26   27       1
    29   26   28       1
    30   28   55       1
    31    2   29       1
    32    5   30       1
    33    5   31       1
    34    6   32       1
    35    9   33       1
    36   10   34       1
    37   13   35       1
    38   14   36       1
    39   14   37       1
    40   14   38       1
    41   15   39       1
    42   15   40       1
    43   17   41       1
    44   18   42       1
    45   20   43       1
    46   21   44       1
    47   22   45       1
    48   23   46       1
    49   25   47       1
    50   25   48       1
    51   26   49       1
    52   27   50       1
    53   27   51       1
    54   27   52       1
    55   28   53       1
    56   28   54       1
@<TRIPOS>SUBSTRUCTURE
     1 GM6901      1 GROUP             4 B     GM6     0 **** GM6 B 901
