@<TRIPOS>MOLECULE
3ikt_NAD_1_ligand
   70    74     1     0     0
SMALL
NO_CHARGES


@<TRIPOS>ATOM
     1 PA          -8.4730    -0.5870   -14.1190 P.3          1 NAD500   0.0000
     2 O1A         -8.7920    -0.7010   -12.7240 O.co2        1 NAD500   0.0000
     3 O2A         -8.2710     0.6550   -14.9510 O.co2        1 NAD500  -1.0000
     4 O5B         -9.6800    -1.2610   -14.8960 O.3          1 NAD500   0.0000
     5 C5B        -10.0960    -2.6200   -14.5820 C.3          1 NAD500   0.0000
     6 C4B        -11.5600    -2.4780   -15.0740 C.3          1 NAD500   0.0000
     7 O4B        -12.1740    -3.7310   -14.6860 O.3          1 NAD500   0.0000
     8 C3B        -12.3040    -1.4650   -14.1750 C.3          1 NAD500   0.0000
     9 O3B        -13.1820    -0.8040   -15.0620 O.3          1 NAD500   0.0000
    10 C2B        -13.0360    -2.3100   -13.1630 C.3          1 NAD500   0.0000
    11 O2B        -14.2460    -1.7070   -12.7450 O.3          1 NAD500   0.0000
    12 C1B        -13.4060    -3.5150   -14.0720 C.3          1 NAD500   0.0000
    13 N9A        -13.7840    -4.6830   -13.2890 N.pl3        1 NAD500   0.0000
    14 C8A        -13.4570    -5.1060   -12.0050 C.2          1 NAD500   0.0000
    15 N7A        -13.9920    -6.2640   -11.6740 N.2          1 NAD500   0.0000
    16 C5A        -14.7380    -6.6050   -12.8100 C.ar         1 NAD500   0.0000
    17 C6A        -15.5280    -7.7310   -13.0510 C.ar         1 NAD500   0.0000
    18 N6A        -15.7540    -8.7760   -12.1980 N.pl3        1 NAD500   0.0000
    19 N1A        -16.1670    -7.8050   -14.3020 N.ar         1 NAD500   0.0000
    20 C2A        -16.0040    -6.7850   -15.2700 C.ar         1 NAD500   0.0000
    21 N3A        -15.2160    -5.6610   -15.0440 N.ar         1 NAD500   0.0000
    22 C4A        -14.6060    -5.6240   -13.8010 C.ar         1 NAD500   0.0000
    23 O3          -7.1980    -1.5060   -14.4850 O.3          1 NAD500   0.0000
    24 PN          -6.0750    -1.4730   -15.6300 P.3          1 NAD500   0.0000
    25 O1N         -4.9180    -0.5280   -15.3000 O.co2        1 NAD500   0.0000
    26 O2N         -6.7170    -1.3270   -16.9510 O.co2        1 NAD500  -1.0000
    27 O5D         -5.5270    -2.9650   -15.4420 O.3          1 NAD500   0.0000
    28 C5D         -6.4070    -4.0970   -15.7910 C.3          1 NAD500   0.0000
    29 C4D         -5.5120    -5.3020   -16.0300 C.3          1 NAD500   0.0000
    30 O4D         -4.5900    -4.9420   -17.0540 O.3          1 NAD500   0.0000
    31 C3D         -4.6210    -5.7110   -14.8270 C.3          1 NAD500   0.0000
    32 O3D         -4.5240    -7.1570   -14.7130 O.3          1 NAD500   0.0000
    33 C2D         -3.2390    -5.1780   -15.1780 C.3          1 NAD500   0.0000
    34 O2D         -2.2270    -6.0540   -14.6370 O.3          1 NAD500   0.0000
    35 C1D         -3.2210    -5.3320   -16.6450 C.3          1 NAD500   0.0000
    36 N1N         -2.3970    -4.3280   -17.3820 N.ar         1 NAD500   1.0000
    37 C2N         -2.5750    -2.9260   -17.2350 C.ar         1 NAD500   0.0000
    38 C3N         -1.7770    -2.0740   -17.9790 C.ar         1 NAD500   0.0000
    39 C7N         -1.9500    -0.5760   -17.8140 C.2          1 NAD500   0.0000
    40 O7N         -1.1620     0.1210   -18.4490 O.2          1 NAD500   0.0000
    41 N7N         -2.8310    -0.0660   -16.9950 N.am         1 NAD500   0.0000
    42 C4N         -0.7730    -2.5820   -18.9230 C.ar         1 NAD500   0.0000
    43 C5N         -0.6510    -3.9970   -19.0630 C.ar         1 NAD500   0.0000
    44 C6N         -1.4130    -4.8910   -18.2480 C.ar         1 NAD500   0.0000
    45 H5B1       -10.0375    -2.8232   -13.6046 H            1 NAD500   0.0000
    46 H5B2        -9.5830    -3.3071   -15.0966 H            1 NAD500   0.0000
    47 H4B        -11.6372    -2.2793   -16.0510 H            1 NAD500   0.0000
    48 H3B        -11.6720    -0.8264   -13.7358 H            1 NAD500   0.0000
    49 H5         -13.4423    -1.4272   -15.7995 H            1 NAD500   0.0000
    50 H2B        -12.4548    -2.5752   -12.3937 H            1 NAD500   0.0000
    51 H7         -14.9901    -2.0027   -13.3441 H            1 NAD500   0.0000
    52 H1B        -14.1122    -3.2723   -14.7371 H            1 NAD500   0.0000
    53 H8A        -12.8700    -4.5799   -11.3897 H            1 NAD500   0.0000
    54 H6A1       -16.3423    -9.5337   -12.4804 H            1 NAD500   0.0000
    55 H6A2       -15.3310    -8.7823   -11.2919 H            1 NAD500   0.0000
    56 H2A        -16.4726    -6.8758   -16.1487 H            1 NAD500   0.0000
    57 H5D1        -6.9258    -3.8854   -16.6193 H            1 NAD500   0.0000
    58 H5D2        -7.0401    -4.2836   -15.0397 H            1 NAD500   0.0000
    59 H4D         -6.0630    -6.0821   -16.3266 H            1 NAD500   0.0000
    60 H3D         -4.9571    -5.3055   -13.9769 H            1 NAD500   0.0000
    61 H17         -5.4369    -7.5428   -14.5798 H            1 NAD500   0.0000
    62 H2D         -3.1130    -4.2279   -14.8928 H            1 NAD500   0.0000
    63 H19         -1.3210    -5.7004   -14.8697 H            1 NAD500   0.0000
    64 H1D         -3.0020    -6.2684   -16.9194 H            1 NAD500   0.0000
    65 H2N         -3.2628    -2.5622   -16.6068 H            1 NAD500   0.0000
    66 H7N1        -2.9192     0.9265   -16.9102 H            1 NAD500   0.0000
    67 H7N2        -3.4171    -0.6681   -16.4529 H            1 NAD500   0.0000
    68 H4N         -0.1951    -1.9582   -19.4492 H            1 NAD500   0.0000
    69 H5N         -0.0208    -4.3702   -19.7439 H            1 NAD500   0.0000
    70 H6N         -1.2612    -5.8788   -18.2838 H            1 NAD500   0.0000
@<TRIPOS>BOND
     1    1    2      ar
     2    1    3      ar
     3    1    4       1
     4    1   23       1
     5    4    5       1
     6    5    6       1
     7    6    7       1
     8    6    8       1
     9    7   12       1
    10    8    9       1
    11    8   10       1
    12   10   11       1
    13   10   12       1
    14   12   13       1
    15   13   14       1
    16   13   22       1
    17   14   15       2
    18   15   16       1
    19   16   17      ar
    20   16   22      ar
    21   17   18       1
    22   17   19      ar
    23   19   20      ar
    24   20   21      ar
    25   21   22      ar
    26   23   24       1
    27   24   25      ar
    28   24   26      ar
    29   24   27       1
    30   27   28       1
    31   28   29       1
    32   29   30       1
    33   29   31       1
    34   30   35       1
    35   31   32       1
    36   31   33       1
    37   33   34       1
    38   33   35       1
    39   35   36       1
    40   36   37      ar
    41   36   44      ar
    42   37   38      ar
    43   38   39       1
    44   38   42      ar
    45   39   40       2
    46   39   41      am
    47   42   43      ar
    48   43   44      ar
    49   44   70       1
    50    5   45       1
    51    5   46       1
    52    6   47       1
    53    8   48       1
    54    9   49       1
    55   10   50       1
    56   11   51       1
    57   12   52       1
    58   14   53       1
    59   18   54       1
    60   18   55       1
    61   20   56       1
    62   43   69       1
    63   28   57       1
    64   28   58       1
    65   29   59       1
    66   31   60       1
    67   32   61       1
    68   33   62       1
    69   34   63       1
    70   35   64       1
    71   37   65       1
    72   41   66       1
    73   41   67       1
    74   42   68       1
@<TRIPOS>SUBSTRUCTURE
     1 NAD500      1 GROUP             4 A     NAD     0 **** NAD A 500
