@<TRIPOS>MOLECULE
4gyi_ADP_1_ligand
   39    41     1     0     0
SMALL
NO_CHARGES


@<TRIPOS>ATOM
     1 PB          16.3110    25.6690   -23.4100 P.3          1 ADP401   0.0000
     2 O1B         17.5170    26.3860   -23.9670 O.co2        1 ADP401   0.0000
     3 O2B         15.2560    26.4880   -22.7080 O.co2        1 ADP401  -1.0000
     4 O3B         16.8720    24.4440   -22.5580 O.co2        1 ADP401  -1.0000
     5 PA          14.1180    24.3270   -24.7260 P.3          1 ADP401   0.0000
     6 O1A         13.2990    25.0170   -23.6690 O.co2        1 ADP401   0.0000
     7 O2A         14.0820    22.8050   -24.7760 O.co2        1 ADP401  -1.0000
     8 O3A         15.6440    24.8420   -24.6450 O.3          1 ADP401   0.0000
     9 O5'         13.7120    24.9700   -26.1320 O.3          1 ADP401   0.0000
    10 C5'         13.8360    26.3860   -26.3230 C.3          1 ADP401   0.0000
    11 C4'         12.8130    26.8570   -27.3550 C.3          1 ADP401   0.0000
    12 O4'         12.9590    26.1170   -28.5800 O.3          1 ADP401   0.0000
    13 C3'         11.3560    26.6430   -26.9460 C.3          1 ADP401   0.0000
    14 O3'         10.8170    27.7100   -26.1580 O.3          1 ADP401   0.0000
    15 C2'         10.6420    26.5110   -28.2740 C.3          1 ADP401   0.0000
    16 O2'         10.4920    27.7980   -28.8850 O.3          1 ADP401   0.0000
    17 C1'         11.6710    25.8200   -29.1330 C.3          1 ADP401   0.0000
    18 N9          11.5610    24.3480   -29.1270 N.pl3        1 ADP401   0.0000
    19 C8          12.3310    23.5080   -28.4100 C.2          1 ADP401   0.0000
    20 N7          12.0160    22.2100   -28.6640 N.2          1 ADP401   0.0000
    21 C5          11.0280    22.2390   -29.5820 C.ar         1 ADP401   0.0000
    22 C6          10.2320    21.2340   -30.3080 C.ar         1 ADP401   0.0000
    23 N6          10.4430    19.9190   -30.0930 N.pl3        1 ADP401   0.0000
    24 N1           9.3050    21.6750   -31.1820 N.ar         1 ADP401   0.0000
    25 C2           9.0930    22.9890   -31.4180 C.ar         1 ADP401   0.0000
    26 N3           9.7820    23.9570   -30.8000 N.ar         1 ADP401   0.0000
    27 C4          10.7360    23.6440   -29.8860 C.ar         1 ADP401   0.0000
    28 H5'1        14.7577    26.5983   -26.6476 H            1 ADP401   0.0000
    29 H5'2        13.6722    26.8543   -25.4547 H            1 ADP401   0.0000
    30 H4'         12.9605    27.8284   -27.5410 H            1 ADP401   0.0000
    31 H3'         11.2764    25.7842   -26.4400 H            1 ADP401   0.0000
    32 H5          10.5252    27.3542   -25.2702 H            1 ADP401   0.0000
    33 H2'          9.7819    26.0051   -28.2085 H            1 ADP401   0.0000
    34 H7          11.3940    28.2020   -29.0371 H            1 ADP401   0.0000
    35 H1'         11.6163    26.1617   -30.0712 H            1 ADP401   0.0000
    36 H9          13.0433    23.8012   -27.7723 H            1 ADP401   0.0000
    37 H10          9.9017    19.2385   -30.5868 H            1 ADP401   0.0000
    38 H11         11.1407    19.6248   -29.4399 H            1 ADP401   0.0000
    39 H12          8.3921    23.2493   -32.0821 H            1 ADP401   0.0000
@<TRIPOS>BOND
     1    1    2      ar
     2    1    3      ar
     3    1    4      ar
     4    1    8       1
     5    5    6      ar
     6    5    7      ar
     7    5    8       1
     8    5    9       1
     9    9   10       1
    10   10   11       1
    11   11   12       1
    12   11   13       1
    13   12   17       1
    14   13   14       1
    15   13   15       1
    16   15   16       1
    17   15   17       1
    18   17   18       1
    19   18   19       1
    20   18   27       1
    21   19   20       2
    22   20   21       1
    23   21   22      ar
    24   21   27      ar
    25   22   23       1
    26   22   24      ar
    27   24   25      ar
    28   25   26      ar
    29   26   27      ar
    30   25   39       1
    31   23   38       1
    32   23   37       1
    33   10   28       1
    34   10   29       1
    35   11   30       1
    36   13   31       1
    37   14   32       1
    38   15   33       1
    39   16   34       1
    40   17   35       1
    41   19   36       1
@<TRIPOS>SUBSTRUCTURE
     1 ADP401      1 GROUP             4 A     ADP     0 **** ADP A 401
