@<TRIPOS>MOLECULE
1did_DIG_2_ligand
   22    22     1     0     0
SMALL
NO_CHARGES


@<TRIPOS>ATOM
     1 C1          41.3700    34.9470     4.2700 C.2          1 DIG400   0.0000
     2 O1          41.9600    34.9020     5.4390 O.2          1 DIG400   0.0000
     3 C2          42.2360    35.2900     3.0730 C.3          1 DIG400   0.0000
     4 C3          41.5840    35.1020     1.7100 C.3          1 DIG400   0.0000
     5 O3          40.1670    35.1840     1.7410 O.3          1 DIG400   0.0000
     6 C4          42.1710    36.2170     0.8700 C.3          1 DIG400   0.0000
     7 O4          42.7400    35.7000    -0.2380 O.3          1 DIG400   0.0000
     8 C5          42.9400    37.1010     1.7850 C.3          1 DIG400   0.0000
     9 C6          42.8110    38.5830     1.5830 C.3          1 DIG400   0.0000
    10 O6          41.5840    39.1850     1.6680 O.3          1 DIG400   0.0000
    11 N5          42.5810    36.6480     3.1030 N.3          1 DIG400   0.0000
    12 H1          40.3920    34.7633     4.1714 H            1 DIG400   0.0000
    13 H2          43.0720    34.7425     3.1105 H            1 DIG400   0.0000
    14 H3          41.8579    34.2189     1.3291 H            1 DIG400   0.0000
    15 H4          39.8925    36.0833     2.0815 H            1 DIG400   0.0000
    16 H5          41.3938    36.7600     0.5521 H            1 DIG400   0.0000
    17 H6          42.2585    34.8639    -0.5009 H            1 DIG400   0.0000
    18 H7          43.9060    36.8765     1.6571 H            1 DIG400   0.0000
    19 H8          43.1662    38.7811     0.6694 H            1 DIG400   0.0000
    20 H9          43.3937    39.0189     2.2689 H            1 DIG400   0.0000
    21 H10         40.9729    38.7948     0.9793 H            1 DIG400   0.0000
    22 H11         43.3577    36.7776     3.7194 H            1 DIG400   0.0000
@<TRIPOS>BOND
     1    1    2       2
     2    1    3       1
     3    3    4       1
     4    3   11       1
     5    4    5       1
     6    4    6       1
     7    6    7       1
     8    6    8       1
     9    8    9       1
    10    8   11       1
    11    9   10       1
    12    1   12       1
    13    3   13       1
    14    4   14       1
    15    5   15       1
    16    6   16       1
    17    7   17       1
    18    8   18       1
    19    9   19       1
    20    9   20       1
    21   10   21       1
    22   11   22       1
@<TRIPOS>SUBSTRUCTURE
     1 DIG400      1 GROUP             4 B     DIG     0 **** DIG B 400
