@<TRIPOS>MOLECULE
4yt5_H4M_1_ligand
   96   100     1     0     0
SMALL
NO_CHARGES


@<TRIPOS>ATOM
     1 N1          11.0910   -31.6130   -13.7310 N.2          1 H4M402   0.0000
     2 C2          11.3410   -31.0780   -14.9330 C.2          1 H4M402   0.0000
     3 NA2         10.3350   -30.7130   -15.7140 N.pl3        1 H4M402   0.0000
     4 N3          12.6580   -30.9180   -15.3630 N.pl3        1 H4M402   0.0000
     5 C4          13.7170   -31.3070   -14.5270 C.2          1 H4M402   0.0000
     6 OH4         14.8630   -31.1450   -14.9470 O.2          1 H4M402   0.0000
     7 C4A         13.4300   -31.8570   -13.2640 C.2          1 H4M402   0.0000
     8 N5          14.3840   -32.2600   -12.3970 N.pl3        1 H4M402   0.0000
     9 C6          14.0630   -32.9280   -11.1000 C.3          1 H4M402   0.0000
    10 C7          12.7050   -32.4650   -10.5480 C.3          1 H4M402   0.0000
    11 C7M         12.2470   -33.2360    -9.3020 C.3          1 H4M402   0.0000
    12 N8          11.7060   -32.5230   -11.6460 N.pl3        1 H4M402   0.0000
    13 C8A         12.0780   -32.0220   -12.9120 C.2          1 H4M402   0.0000
    14 C9          15.2280   -32.6090   -10.1350 C.3          1 H4M402   0.0000
    15 C9M         15.6270   -33.8800    -9.3680 C.3          1 H4M402   0.0000
    16 C10         15.8900   -32.2560   -12.4430 C.3          1 H4M402   0.0000
    17 N10         16.3270   -32.1150   -11.0200 N.pl3        1 H4M402   0.0000
    18 C11         19.8190   -30.3070    -9.7550 C.ar         1 H4M402   0.0000
    19 C12         19.5750   -30.4850   -11.1170 C.ar         1 H4M402   0.0000
    20 C13         18.3990   -31.0970   -11.5520 C.ar         1 H4M402   0.0000
    21 C14         17.4610   -31.5320   -10.6200 C.ar         1 H4M402   0.0000
    22 C15         17.7130   -31.3430    -9.2640 C.ar         1 H4M402   0.0000
    23 C16         18.8830   -30.7360    -8.8270 C.ar         1 H4M402   0.0000
    24 CX1         20.9800   -29.6850    -9.3170 C.3          1 H4M402   0.0000
    25 CX2         22.1380   -30.6670    -9.2230 C.3          1 H4M402   0.0000
    26 CX3         23.4440   -29.8570    -9.1460 C.3          1 H4M402   0.0000
    27 CX4         24.1690   -30.0800    -7.8140 C.3          1 H4M402   0.0000
    28 CX5         25.6170   -29.5830    -7.9440 C.3          1 H4M402   0.0000
    29 OX2         21.9600   -31.4920    -8.0690 O.3          1 H4M402   0.0000
    30 OX3         24.3020   -30.2340   -10.2280 O.3          1 H4M402   0.0000
    31 OX4         23.4940   -29.3710    -6.7620 O.3          1 H4M402   0.0000
    32 OX5         26.2820   -29.6770    -6.6780 O.3          1 H4M402   0.0000
    33 O5J         30.8490   -29.9090    -5.7420 O.3          1 H4M402   0.0000
    34 C5J         30.0270   -31.0640    -5.4880 C.3          1 H4M402   0.0000
    35 C4J         28.5410   -30.7020    -5.4900 C.3          1 H4M402   0.0000
    36 O4J         27.8600   -31.3430    -6.5790 O.3          1 H4M402   0.0000
    37 C3J         27.8320   -31.4400    -4.3870 C.3          1 H4M402   0.0000
    38 O3J         28.1590   -30.9310    -3.0750 O.3          1 H4M402   0.0000
    39 C2J         26.3940   -31.1360    -4.7480 C.3          1 H4M402   0.0000
    40 O2J         26.0280   -29.8460    -4.2500 O.3          1 H4M402   0.0000
    41 C1J         26.4790   -31.0440    -6.2820 C.3          1 H4M402   0.0000
    42 PA          31.4000   -29.5920    -7.2370 P.3          1 H4M402   0.0000
    43 O1A         30.1000   -29.7450    -8.2070 O.co2        1 H4M402   0.0000
    44 O2A         32.0110   -28.2420    -7.3570 O.co2        1 H4M402  -1.0000
    45 O3A         32.4770   -30.7830    -7.6080 O.3          1 H4M402   0.0000
    46 CP1         32.9220   -31.0650    -8.9470 C.3          1 H4M402   0.0000
    47 CP3         34.1010   -32.0500    -8.9060 C.3          1 H4M402   0.0000
    48 CP2         31.7800   -31.6900    -9.7580 C.2          1 H4M402   0.0000
    49 OP1         31.6860   -32.9390    -9.7470 O.co2        1 H4M402   0.0000
    50 OP2         31.0240   -30.9050   -10.3670 O.co2        1 H4M402  -1.0000
    51 CP4         35.2000   -31.6050    -9.8790 C.3          1 H4M402   0.0000
    52 CP5         36.0660   -32.7990   -10.3070 C.2          1 H4M402   0.0000
    53 OP5         35.4840   -33.8940   -10.4890 O.co2        1 H4M402   0.0000
    54 OPX         37.2910   -32.5850   -10.4530 O.co2        1 H4M402  -1.0000
    55 HA21        10.5187   -30.3133   -16.6120 H            1 H4M402   0.0000
    56 HA22         9.3919   -30.8372   -15.4055 H            1 H4M402   0.0000
    57 H3          14.0296   -33.9165   -11.2475 H            1 H4M402   0.0000
    58 H4          12.8024   -31.5052   -10.2848 H            1 H4M402   0.0000
    59 H7M1        11.3613   -32.8841    -8.9991 H            1 H4M402   0.0000
    60 H7M2        12.1616   -34.2073    -9.5238 H            1 H4M402   0.0000
    61 H7M3        12.9198   -33.1188    -8.5715 H            1 H4M402   0.0000
    62 H8          10.7953   -32.9064   -11.4924 H            1 H4M402   0.0000
    63 H9          14.9556   -31.8921    -9.4932 H            1 H4M402   0.0000
    64 H9M1        16.3805   -33.6705    -8.7448 H            1 H4M402   0.0000
    65 H9M2        14.8433   -34.2126    -8.8435 H            1 H4M402   0.0000
    66 H9M3        15.9168   -34.5837   -10.0168 H            1 H4M402   0.0000
    67 H13         16.2218   -31.4869   -12.9893 H            1 H4M402   0.0000
    68 H14         16.2310   -33.1122   -12.8311 H            1 H4M402   0.0000
    69 H15         20.2482   -30.1715   -11.7867 H            1 H4M402   0.0000
    70 H16         18.2306   -31.2227   -12.5297 H            1 H4M402   0.0000
    71 H17         17.0390   -31.6501    -8.5922 H            1 H4M402   0.0000
    72 H18         19.0492   -30.6092    -7.8491 H            1 H4M402   0.0000
    73 HX11        20.8155   -29.2893    -8.4135 H            1 H4M402   0.0000
    74 HX12        21.2217   -28.9584    -9.9601 H            1 H4M402   0.0000
    75 HX2         22.1524   -31.2413   -10.0415 H            1 H4M402   0.0000
    76 HX3         23.2248   -28.8853    -9.2336 H            1 H4M402   0.0000
    77 HX4         24.1742   -31.0572    -7.6017 H            1 H4M402   0.0000
    78 HX51        25.6143   -28.6300    -8.2469 H            1 H4M402   0.0000
    79 HX52        26.1011   -30.1446    -8.6150 H            1 H4M402   0.0000
    80 H26         22.4029   -31.0635    -7.2814 H            1 H4M402   0.0000
    81 H27         24.8864   -30.9931    -9.9411 H            1 H4M402   0.0000
    82 H28         23.4846   -28.3933    -6.9717 H            1 H4M402   0.0000
    83 H5J1        30.2680   -31.4450    -4.5954 H            1 H4M402   0.0000
    84 H5J2        30.1966   -31.7468    -6.1987 H            1 H4M402   0.0000
    85 H4J         28.3823   -29.7151    -5.4606 H            1 H4M402   0.0000
    86 H3J         28.0127   -32.4220    -4.4427 H            1 H4M402   0.0000
    87 H33         27.6634   -31.4540    -2.3815 H            1 H4M402   0.0000
    88 H2J         25.7662   -31.8528    -4.4444 H            1 H4M402   0.0000
    89 H35         25.3362   -29.4417    -4.8483 H            1 H4M402   0.0000
    90 H1J         25.8458   -31.6692    -6.7382 H            1 H4M402   0.0000
    91 HP1         33.2144   -30.2152    -9.3856 H            1 H4M402   0.0000
    92 HP31        33.7794   -32.9606    -9.1656 H            1 H4M402   0.0000
    93 HP32        34.4738   -32.0800    -7.9786 H            1 H4M402   0.0000
    94 HP41        35.7790   -30.9242    -9.4304 H            1 H4M402   0.0000
    95 HP42        34.7762   -31.2003   -10.6893 H            1 H4M402   0.0000
    96 H42         12.8476   -30.5275   -16.2639 H            1 H4M402   0.0000
@<TRIPOS>BOND
     1    1    2       2
     2    1   13       1
     3    2    3       1
     4    2    4       1
     5    4    5       1
     6    5    6       2
     7    5    7       1
     8    7    8       1
     9    7   13       2
    10    8    9       1
    11    8   16       1
    12    9   10       1
    13    9   14       1
    14   10   11       1
    15   10   12       1
    16   12   13       1
    17   14   15       1
    18   14   17       1
    19   16   17       1
    20   17   21       1
    21   18   19      ar
    22   18   23      ar
    23   18   24       1
    24   19   20      ar
    25   20   21      ar
    26   21   22      ar
    27   22   23      ar
    28   24   25       1
    29   25   26       1
    30   25   29       1
    31   26   27       1
    32   26   30       1
    33   27   28       1
    34   27   31       1
    35   28   32       1
    36   32   41       1
    37   33   34       1
    38   33   42       1
    39   34   35       1
    40   35   36       1
    41   35   37       1
    42   36   41       1
    43   37   38       1
    44   37   39       1
    45   39   40       1
    46   39   41       1
    47   42   43      ar
    48   42   44      ar
    49   42   45       1
    50   45   46       1
    51   46   47       1
    52   46   48       1
    53   47   51       1
    54   48   49      ar
    55   48   50      ar
    56   51   52       1
    57   52   53      ar
    58   52   54      ar
    59   51   94       1
    60    3   55       1
    61    3   56       1
    62    9   57       1
    63   10   58       1
    64   11   59       1
    65   11   60       1
    66   11   61       1
    67   12   62       1
    68   14   63       1
    69   15   64       1
    70   15   65       1
    71   15   66       1
    72   16   67       1
    73   16   68       1
    74   19   69       1
    75   20   70       1
    76   22   71       1
    77   23   72       1
    78   24   73       1
    79   24   74       1
    80   25   75       1
    81   26   76       1
    82   27   77       1
    83   28   78       1
    84   28   79       1
    85   29   80       1
    86   30   81       1
    87   31   82       1
    88   34   83       1
    89   34   84       1
    90   35   85       1
    91   37   86       1
    92   38   87       1
    93   39   88       1
    94   40   89       1
    95   41   90       1
    96    4   96       1
    97   46   91       1
    98   47   92       1
    99   47   93       1
   100   51   95       1
@<TRIPOS>SUBSTRUCTURE
     1 H4M402      1 GROUP             4 A     H4M     0 **** H4M A 402
