@<TRIPOS>MOLECULE
2hek_GDP_2_ligand
   40    42     1     0     0
SMALL
NO_CHARGES


@<TRIPOS>ATOM
     1 PB          17.8100    24.4000    17.6040 P.3          1 GDP402   0.0000
     2 O1B         16.8740    23.3570    17.0200 O.co2        1 GDP402   0.0000
     3 O2B         17.8630    25.5940    16.6680 O.co2        1 GDP402  -1.0000
     4 O3B         17.2760    24.8650    18.9480 O.co2        1 GDP402  -1.0000
     5 O3A         19.3060    23.7770    17.7630 O.3          1 GDP402   0.0000
     6 PA          19.8910    23.2190    19.1710 P.3          1 GDP402   0.0000
     7 O1A         19.8880    24.2980    20.2370 O.co2        1 GDP402   0.0000
     8 O2A         21.2800    22.6370    19.0330 O.co2        1 GDP402  -1.0000
     9 O5'         18.8380    22.0510    19.5320 O.3          1 GDP402   0.0000
    10 C5'         18.9250    21.3000    20.7350 C.3          1 GDP402   0.0000
    11 C4'         17.5560    21.3130    21.3960 C.3          1 GDP402   0.0000
    12 O4'         17.5630    20.3030    22.4010 O.3          1 GDP402   0.0000
    13 C3'         17.2450    22.6430    22.0860 C.3          1 GDP402   0.0000
    14 O3'         16.1830    23.3590    21.4370 O.3          1 GDP402   0.0000
    15 C2'         16.8730    22.2730    23.5140 C.3          1 GDP402   0.0000
    16 O2'         15.4540    22.3020    23.6720 O.3          1 GDP402   0.0000
    17 C1'         17.3670    20.8420    23.7100 C.3          1 GDP402   0.0000
    18 N9          18.6340    20.7510    24.5050 N.pl3        1 GDP402   0.0000
    19 C8          18.9930    19.6930    25.2660 C.2          1 GDP402   0.0000
    20 N7          20.1900    19.8770    25.8860 N.2          1 GDP402   0.0000
    21 C5          20.6310    21.0980    25.5250 C.2          1 GDP402   0.0000
    22 C6          21.8190    21.9370    25.8090 C.2          1 GDP402   0.0000
    23 O6          22.7270    21.5340    26.5450 O.2          1 GDP402   0.0000
    24 N1          21.8950    23.1470    25.2380 N.pl3        1 GDP402   0.0000
    25 C2          20.9430    23.6350    24.4110 C.2          1 GDP402   0.0000
    26 N2          21.0930    24.8680    23.8680 N.pl3        1 GDP402   0.0000
    27 N3          19.8270    22.9250    24.0990 N.2          1 GDP402   0.0000
    28 C4          19.6110    21.6730    24.6120 C.2          1 GDP402   0.0000
    29 H5'1        19.6006    21.7136    21.3453 H            1 GDP402   0.0000
    30 H5'2        19.1937    20.3590    20.5291 H            1 GDP402   0.0000
    31 H4'         16.8502    21.1104    20.7172 H            1 GDP402   0.0000
    32 H3'         18.0683    23.2105    22.0956 H            1 GDP402   0.0000
    33 H5          16.5660    23.9588    20.7344 H            1 GDP402   0.0000
    34 H2'         17.3136    22.8910    24.1651 H            1 GDP402   0.0000
    35 H7          15.2285    22.5457    24.6153 H            1 GDP402   0.0000
    36 H1'         16.6552    20.3146    24.1739 H            1 GDP402   0.0000
    37 H9          18.4395    18.8658    25.3627 H            1 GDP402   0.0000
    38 H10         22.6938    23.7161    25.4328 H            1 GDP402   0.0000
    39 H11         20.3918    25.2334    23.2558 H            1 GDP402   0.0000
    40 H12         21.9049    25.4122    24.0796 H            1 GDP402   0.0000
@<TRIPOS>BOND
     1    1    2      ar
     2    1    3      ar
     3    1    4      ar
     4    1    5       1
     5    5    6       1
     6    6    7      ar
     7    6    8      ar
     8    6    9       1
     9    9   10       1
    10   10   11       1
    11   11   12       1
    12   11   13       1
    13   12   17       1
    14   13   14       1
    15   13   15       1
    16   15   16       1
    17   15   17       1
    18   17   18       1
    19   18   19       1
    20   18   28       1
    21   19   20       2
    22   20   21       1
    23   21   22       1
    24   21   28       2
    25   22   23       2
    26   22   24       1
    27   24   25       1
    28   25   26       1
    29   25   27       2
    30   27   28       1
    31   26   40       1
    32   26   39       1
    33   24   38       1
    34   10   29       1
    35   10   30       1
    36   11   31       1
    37   13   32       1
    38   14   33       1
    39   15   34       1
    40   16   35       1
    41   17   36       1
    42   19   37       1
@<TRIPOS>SUBSTRUCTURE
     1 GDP402      1 GROUP             4 A     GDP     0 **** GDP A 402
