@<TRIPOS>MOLECULE
1r0l_NDP_2_ligand
   38    40     1     0     0
SMALL
NO_CHARGES


@<TRIPOS>ATOM
     1 PA          34.7340    55.6150     7.0950 P.3          1 NDP401   0.0000
     2 O1A         35.6930    55.4220     6.1030 O.co2        1 NDP401   0.0000
     3 O2A         33.2010    55.4010     6.8590 O.co2        1 NDP401  -1.0000
     4 O5B         34.9600    54.6490     8.3340 O.3          1 NDP401   0.0000
     5 C5B         33.9880    55.0480     9.2030 C.3          1 NDP401   0.0000
     6 C4B         34.1660    53.9850    10.1410 C.3          1 NDP401   0.0000
     7 O4B         33.2790    54.4690    11.1350 O.3          1 NDP401   0.0000
     8 C3B         33.5940    52.5150     9.8020 C.3          1 NDP401   0.0000
     9 O3B         34.1880    51.4870    10.7300 O.3          1 NDP401   0.0000
    10 C2B         32.1470    52.7440    10.0980 C.3          1 NDP401   0.0000
    11 O2B         31.2050    51.6790    10.0130 O.3          1 NDP401   0.0000
    12 C1B         32.2590    53.5230    11.4070 C.3          1 NDP401   0.0000
    13 N9A         31.0750    54.3090    11.6370 N.pl3        1 NDP401   0.0000
    14 C8A         30.5120    55.1470    10.6800 C.2          1 NDP401   0.0000
    15 N7A         29.4710    55.7480    11.1370 N.2          1 NDP401   0.0000
    16 C5A         29.3100    55.3380    12.4160 C.ar         1 NDP401   0.0000
    17 C6A         28.3680    55.6430    13.4250 C.ar         1 NDP401   0.0000
    18 N6A         27.3780    56.5220    13.2240 N.pl3        1 NDP401   0.0000
    19 N1A         28.5010    55.0360    14.6160 N.ar         1 NDP401   0.0000
    20 C2A         29.4970    54.1500    14.8490 C.ar         1 NDP401   0.0000
    21 N3A         30.4320    53.7990    13.9660 N.ar         1 NDP401   0.0000
    22 C4A         30.2820    54.4300    12.7500 C.ar         1 NDP401   0.0000
    23 O3          34.9000    57.0700     7.6730 O.co2        1 NDP401  -1.0000
    24 P2B         31.0160    50.8850     8.7000 P.3          1 NDP401   0.0000
    25 O1X         32.1100    50.9500     7.7100 O.co2        1 NDP401   0.0000
    26 O2X         29.5960    50.5770     8.3860 O.co2        1 NDP401  -1.0000
    27 O3X         30.6660    52.2230     8.0500 O.co2        1 NDP401  -1.0000
    28 H5B1        33.0778    55.0473     8.7889 H            1 NDP401   0.0000
    29 H5B2        34.1727    55.9468     9.6005 H            1 NDP401   0.0000
    30 H4B         35.1072    53.9447    10.4765 H            1 NDP401   0.0000
    31 H3B         33.7407    52.2743     8.8425 H            1 NDP401   0.0000
    32 H5          35.1048    51.7765    11.0052 H            1 NDP401   0.0000
    33 H2B         31.8449    53.4144     9.4203 H            1 NDP401   0.0000
    34 H1B         32.4825    52.9338    12.1835 H            1 NDP401   0.0000
    35 H8A         30.8711    55.2668     9.7544 H            1 NDP401   0.0000
    36 H6A1        26.7264    56.7175    13.9570 H            1 NDP401   0.0000
    37 H6A2        27.2903    56.9830    12.3409 H            1 NDP401   0.0000
    38 H2A         29.5345    53.7257    15.7537 H            1 NDP401   0.0000
@<TRIPOS>BOND
     1    1    2      ar
     2    1    3      ar
     3    1    4       1
     4    1   23      ar
     5    4    5       1
     6    5    6       1
     7    6    7       1
     8    6    8       1
     9    7   12       1
    10    8    9       1
    11    8   10       1
    12   10   11       1
    13   10   12       1
    14   11   24       1
    15   12   13       1
    16   13   14       1
    17   13   22       1
    18   14   15       2
    19   15   16       1
    20   16   17      ar
    21   16   22      ar
    22   17   18       1
    23   17   19      ar
    24   19   20      ar
    25   20   21      ar
    26   21   22      ar
    27   24   25      ar
    28   24   26      ar
    29   24   27      ar
    30   18   37       1
    31   20   38       1
    32    5   28       1
    33    5   29       1
    34    6   30       1
    35    8   31       1
    36    9   32       1
    37   10   33       1
    38   12   34       1
    39   14   35       1
    40   18   36       1
@<TRIPOS>SUBSTRUCTURE
     1 NDP401      1 GROUP             4 B     NDP     0 **** NDP B 401
