@<TRIPOS>MOLECULE
3nbx_ADP_1_ligand
   39    41     1     0     0
SMALL
NO_CHARGES


@<TRIPOS>ATOM
     1 PB          22.7240    20.6040    49.8100 P.3          1 ADP800   0.0000
     2 O1B         21.6210    20.9470    50.7780 O.co2        1 ADP800   0.0000
     3 O2B         22.7120    21.3690    48.5120 O.co2        1 ADP800  -1.0000
     4 O3B         22.9780    19.1350    49.6100 O.co2        1 ADP800  -1.0000
     5 PA          24.3250    20.8160    52.1190 P.3          1 ADP800   0.0000
     6 O1A         23.6300    21.8280    52.9950 O.co2        1 ADP800   0.0000
     7 O2A         24.1300    19.3370    52.3440 O.co2        1 ADP800  -1.0000
     8 O3A         24.0220    21.1420    50.5760 O.3          1 ADP800   0.0000
     9 O5'         25.9040    21.1180    52.1410 O.3          1 ADP800   0.0000
    10 C5'         26.4700    21.9190    53.1690 C.3          1 ADP800   0.0000
    11 C4'         27.8950    21.4570    53.4410 C.3          1 ADP800   0.0000
    12 O4'         28.7030    21.6460    52.2770 O.3          1 ADP800   0.0000
    13 C3'         28.5210    22.2840    54.5390 C.3          1 ADP800   0.0000
    14 O3'         29.4070    21.4470    55.2840 O.3          1 ADP800   0.0000
    15 C2'         29.2720    23.3760    53.7960 C.3          1 ADP800   0.0000
    16 O2'         30.4620    23.7830    54.4890 O.3          1 ADP800   0.0000
    17 C1'         29.5720    22.7720    52.4250 C.3          1 ADP800   0.0000
    18 N9          29.3380    23.7070    51.2870 N.pl3        1 ADP800   0.0000
    19 C8          28.9350    23.3240    50.0600 C.2          1 ADP800   0.0000
    20 N7          28.8080    24.3810    49.2190 N.2          1 ADP800   0.0000
    21 C5          29.1440    25.4810    49.9100 C.ar         1 ADP800   0.0000
    22 C6          29.2330    26.9330    49.6240 C.ar         1 ADP800   0.0000
    23 N6          28.9250    27.4300    48.4030 N.pl3        1 ADP800   0.0000
    24 N1          29.6320    27.7510    50.6270 N.ar         1 ADP800   0.0000
    25 C2          29.9390    27.2800    51.8520 C.ar         1 ADP800   0.0000
    26 N3          29.8800    25.9740    52.1760 N.ar         1 ADP800   0.0000
    27 C4          29.4980    25.0370    51.2690 C.ar         1 ADP800   0.0000
    28 H5'1        25.9245    21.8275    54.0021 H            1 ADP800   0.0000
    29 H5'2        26.4788    22.8762    52.8798 H            1 ADP800   0.0000
    30 H4'         27.8950    20.4914    53.7012 H            1 ADP800   0.0000
    31 H3'         27.8188    22.6763    55.1331 H            1 ADP800   0.0000
    32 H5          29.8312    21.9792    56.0167 H            1 ADP800   0.0000
    33 H2'         28.6718    24.1676    53.6817 H            1 ADP800   0.0000
    34 H7          30.9231    24.5003    53.9666 H            1 ADP800   0.0000
    35 H1'         30.5217    22.4595    52.4040 H            1 ADP800   0.0000
    36 H9          28.7517    22.3758    49.8005 H            1 ADP800   0.0000
    37 H10         28.9920    28.4130    48.2318 H            1 ADP800   0.0000
    38 H11         28.6305    26.8142    47.6722 H            1 ADP800   0.0000
    39 H12         30.2245    27.9319    52.5545 H            1 ADP800   0.0000
@<TRIPOS>BOND
     1    1    2      ar
     2    1    3      ar
     3    1    4      ar
     4    1    8       1
     5    5    6      ar
     6    5    7      ar
     7    5    8       1
     8    5    9       1
     9    9   10       1
    10   10   11       1
    11   11   12       1
    12   11   13       1
    13   12   17       1
    14   13   14       1
    15   13   15       1
    16   15   16       1
    17   15   17       1
    18   17   18       1
    19   18   19       1
    20   18   27       1
    21   19   20       2
    22   20   21       1
    23   21   22      ar
    24   21   27      ar
    25   22   23       1
    26   22   24      ar
    27   24   25      ar
    28   25   26      ar
    29   26   27      ar
    30   25   39       1
    31   23   38       1
    32   23   37       1
    33   10   28       1
    34   10   29       1
    35   11   30       1
    36   13   31       1
    37   14   32       1
    38   15   33       1
    39   16   34       1
    40   17   35       1
    41   19   36       1
@<TRIPOS>SUBSTRUCTURE
     1 ADP800      1 GROUP             4 X     ADP     0 **** ADP X 800
