@<TRIPOS>MOLECULE
3fxb_4CS_1_ligand
   19    19     1     0     0
SMALL
NO_CHARGES


@<TRIPOS>ATOM
     1 O            6.8640    -7.7190     7.3890 O.co2        1 4CS401   0.0000
     2 C            6.6270    -8.6020     6.5790 C.2          1 4CS401   0.0000
     3 OXT          7.5980    -9.2170     6.1510 O.co2        1 4CS401  -1.0000
     4 CA           5.2040    -8.9150     6.1080 C.3          1 4CS401   0.0000
     5 CB           4.2020    -8.7000     7.2200 C.3          1 4CS401   0.0000
     6 CAD          2.8050    -8.8980     6.6500 C.3          1 4CS401   0.0000
     7 NAG          2.7820   -10.3200     6.2160 N.pl3        1 4CS401   0.0000
     8 CAI          3.9570   -11.0100     5.7660 C.2          1 4CS401   0.0000
     9 CAA          3.9610   -12.4830     5.3420 C.3          1 4CS401   0.0000
    10 N            5.1490   -10.3090     5.7000 N.2          1 4CS401   0.0000
    11 HA           4.9723    -8.3296     5.3311 H            1 4CS401   0.0000
    12 HB1          4.2914    -7.7717     7.5808 H            1 4CS401   0.0000
    13 HB2          4.3644    -9.3598     7.9536 H            1 4CS401   0.0000
    14 HAD1         2.6500    -8.2881     5.8728 H            1 4CS401   0.0000
    15 HAD2         2.1102    -8.7300     7.3493 H            1 4CS401   0.0000
    16 HAG          1.9134   -10.8150     6.2386 H            1 4CS401   0.0000
    17 HAA1         4.8853   -12.7484     5.0677 H            1 4CS401   0.0000
    18 HAA2         3.6649   -13.0516     6.1095 H            1 4CS401   0.0000
    19 HAA3         3.3355   -12.6100     4.5722 H            1 4CS401   0.0000
@<TRIPOS>BOND
     1    1    2      ar
     2    2    3      ar
     3    2    4       1
     4    4    5       1
     5    4   10       1
     6    5    6       1
     7    6    7       1
     8    7    8       1
     9    8    9       1
    10    8   10       2
    11    9   19       1
    12    4   11       1
    13    5   12       1
    14    5   13       1
    15    6   14       1
    16    6   15       1
    17    7   16       1
    18    9   17       1
    19    9   18       1
@<TRIPOS>SUBSTRUCTURE
     1 4CS401      1 GROUP             4 A     4CS     0 **** 4CS A 401
