@<TRIPOS>MOLECULE
1sg4_CO8_1_ligand
  103   105     1     0     0
SMALL
NO_CHARGES


@<TRIPOS>ATOM
     1 N1A         26.0580   -43.1710    12.3270 N.ar         1 CO8701   0.0000
     2 C2A         27.2340   -43.5890    11.8570 C.ar         1 CO8701   0.0000
     3 N3A         27.7510   -43.1580    10.7010 N.ar         1 CO8701   0.0000
     4 C4A         27.1410   -42.1240    10.1010 C.ar         1 CO8701   0.0000
     5 C5A         25.9140   -41.4730    10.5890 C.ar         1 CO8701   0.0000
     6 C6A         25.4620   -42.0820    11.8440 C.ar         1 CO8701   0.0000
     7 N6A         24.3130   -41.5830    12.4400 N.pl3        1 CO8701   0.0000
     8 N7A         25.5060   -40.5030     9.7770 N.2          1 CO8701   0.0000
     9 C8A         26.4560   -40.4720     8.8280 C.2          1 CO8701   0.0000
    10 N9A         27.3980   -41.4340     8.9500 N.pl3        1 CO8701   0.0000
    11 C1B         28.6190   -41.6050     8.0980 C.3          1 CO8701   0.0000
    12 C2B         28.2160   -42.1920     6.7450 C.3          1 CO8701   0.0000
    13 O2B         27.8220   -43.5570     6.7650 O.3          1 CO8701   0.0000
    14 C3B         29.4740   -41.9420     5.9260 C.3          1 CO8701   0.0000
    15 O3B         30.5190   -42.8340     6.1520 O.3          1 CO8701   0.0000
    16 P3B         30.5250   -44.3230     6.4110 P.3          1 CO8701   0.0000
    17 O7A         30.3560   -44.5750     7.9110 O.co2        1 CO8701   0.0000
    18 O8A         29.4380   -45.0230     5.5970 O.co2        1 CO8701  -1.0000
    19 O9A         31.9020   -44.8550     5.9880 O.co2        1 CO8701  -1.0000
    20 C4B         29.8660   -40.5390     6.4310 C.3          1 CO8701   0.0000
    21 O4B         29.2990   -40.4000     7.7390 O.3          1 CO8701   0.0000
    22 C5B         29.4670   -39.4440     5.4590 C.3          1 CO8701   0.0000
    23 O5B         28.2910   -38.7000     5.6640 O.3          1 CO8701   0.0000
    24 P1A         27.0380   -38.8030     4.7960 P.3          1 CO8701   0.0000
    25 O1A         27.4280   -39.3890     3.4310 O.co2        1 CO8701   0.0000
    26 O2A         26.0280   -39.7370     5.4790 O.co2        1 CO8701  -1.0000
    27 O3A         26.3790   -37.4570     4.5610 O.3          1 CO8701   0.0000
    28 P2A         26.6690   -35.9580     4.6430 P.3          1 CO8701   0.0000
    29 O4A         28.1720   -35.7020     4.4520 O.co2        1 CO8701   0.0000
    30 O5A         25.8920   -35.1750     3.5720 O.co2        1 CO8701  -1.0000
    31 O6A         26.2480   -35.4380     6.0290 O.3          1 CO8701   0.0000
    32 CBP         24.4080   -36.2800     7.4640 C.3          1 CO8701   0.0000
    33 CCP         24.8480   -35.4590     6.2440 C.3          1 CO8701   0.0000
    34 CDP         23.2190   -35.5390     8.0770 C.3          1 CO8701   0.0000
    35 CEP         25.5730   -36.2670     8.4490 C.3          1 CO8701   0.0000
    36 CAP         24.0910   -37.7110     6.9970 C.3          1 CO8701   0.0000
    37 OAP         25.1950   -38.6170     7.2000 O.3          1 CO8701   0.0000
    38 C9P         22.9230   -38.4170     7.7120 C.2          1 CO8701   0.0000
    39 O9P         21.7710   -38.2720     7.2900 O.2          1 CO8701   0.0000
    40 N8P         23.3230   -39.1750     8.7480 N.am         1 CO8701   0.0000
    41 C7P         22.5310   -39.9320     9.6980 C.3          1 CO8701   0.0000
    42 C6P         22.0380   -38.9110    10.7360 C.3          1 CO8701   0.0000
    43 C5P         20.8810   -39.4740    11.5360 C.2          1 CO8701   0.0000
    44 O5P         19.7920   -39.7390    10.9760 O.2          1 CO8701   0.0000
    45 N4P         21.1810   -39.6130    12.8460 N.am         1 CO8701   0.0000
    46 C3P         20.1920   -40.1640    13.7650 C.3          1 CO8701   0.0000
    47 C2P         20.6750   -41.5290    14.2510 C.3          1 CO8701   0.0000
    48 S1P         19.5770   -42.1100    15.5980 S.3          1 CO8701   0.0000
    49 C1'         19.9000   -41.2910    17.0020 C.2          1 CO8701   0.0000
    50 O1'         20.8830   -40.4960    16.9720 O.2          1 CO8701   0.0000
    51 C2'         19.1100   -41.4490    18.3130 C.3          1 CO8701   0.0000
    52 C3'         18.7760   -42.8670    18.7900 C.3          1 CO8701   0.0000
    53 C4'         17.8900   -43.4890    19.8480 C.3          1 CO8701   0.0000
    54 C5'         17.6720   -44.9980    19.9530 C.3          1 CO8701   0.0000
    55 C6'         16.5700   -45.8270    20.5910 C.3          1 CO8701   0.0000
    56 C7'         16.0270   -45.6690    21.9900 C.3          1 CO8701   0.0000
    57 C8'         15.0130   -46.7270    22.3770 C.3          1 CO8701   0.0000
    58 H2A         27.7529   -44.2549    12.3931 H            1 CO8701   0.0000
    59 H6A1        23.8728   -40.7648    12.0701 H            1 CO8701   0.0000
    60 H6A2        23.9250   -42.0414    13.2395 H            1 CO8701   0.0000
    61 H8A         26.4657   -39.7942     8.0928 H            1 CO8701   0.0000
    62 H1B         29.2582   -42.2251     8.5529 H            1 CO8701   0.0000
    63 H2B         27.4694   -41.6457     6.3653 H            1 CO8701   0.0000
    64 H7          28.4277   -44.0875     6.1719 H            1 CO8701   0.0000
    65 H3B         29.2516   -41.9093     4.9516 H            1 CO8701   0.0000
    66 H4B         30.8612   -40.5156     6.5256 H            1 CO8701   0.0000
    67 H5B1        29.3798   -39.8759     4.5613 H            1 CO8701   0.0000
    68 H5B2        30.2215   -38.7879     5.4414 H            1 CO8701   0.0000
    69 HCP1        24.4123   -35.8470     5.4318 H            1 CO8701   0.0000
    70 HCP2        24.5367   -34.5173     6.3715 H            1 CO8701   0.0000
    71 HDP1        22.8938   -36.0376     8.8805 H            1 CO8701   0.0000
    72 HDP2        23.5031   -34.6193     8.3478 H            1 CO8701   0.0000
    73 HDP3        22.4826   -35.4756     7.4035 H            1 CO8701   0.0000
    74 HEP1        25.3273   -36.7935     9.2629 H            1 CO8701   0.0000
    75 HEP2        26.3780   -36.6751     8.0185 H            1 CO8701   0.0000
    76 HEP3        25.7773   -35.3239     8.7112 H            1 CO8701   0.0000
    77 HAP         23.8865   -37.6821     6.0185 H            1 CO8701   0.0000
    78 H21         25.7784   -38.6187     6.3879 H            1 CO8701   0.0000
    79 H8P         24.3126   -39.2239     8.8833 H            1 CO8701   0.0000
    80 H7P1        23.0913   -40.6337    10.1381 H            1 CO8701   0.0000
    81 H7P2        21.7551   -40.3645     9.2387 H            1 CO8701   0.0000
    82 H6P1        21.7377   -38.0822    10.2638 H            1 CO8701   0.0000
    83 H6P2        22.7885   -38.6870    11.3578 H            1 CO8701   0.0000
    84 H4P         22.0807   -39.3382    13.1851 H            1 CO8701   0.0000
    85 H3P1        19.3160   -40.2662    13.2937 H            1 CO8701   0.0000
    86 H3P2        20.0806   -39.5497    14.5461 H            1 CO8701   0.0000
    87 H2P1        21.6114   -41.4504    14.5929 H            1 CO8701   0.0000
    88 H2P2        20.6502   -42.1818    13.4939 H            1 CO8701   0.0000
    89 H2'1        18.2437   -40.9630    18.1977 H            1 CO8701   0.0000
    90 H2'2        19.6443   -41.0110    19.0359 H            1 CO8701   0.0000
    91 H3'1        19.6772   -43.2320    19.0239 H            1 CO8701   0.0000
    92 H3'2        18.4471   -43.3027    17.9522 H            1 CO8701   0.0000
    93 H4'1        16.9836   -43.0855    19.7235 H            1 CO8701   0.0000
    94 H4'2        18.2651   -43.2006    20.7290 H            1 CO8701   0.0000
    95 H5'1        18.5020   -45.3235    20.4059 H            1 CO8701   0.0000
    96 H5'2        17.6714   -45.3014    19.0001 H            1 CO8701   0.0000
    97 H6'1        16.8937   -46.7719    20.5425 H            1 CO8701   0.0000
    98 H6'2        15.7785   -45.7145    19.9902 H            1 CO8701   0.0000
    99 H7'1        15.5889   -44.7727    22.0586 H            1 CO8701   0.0000
   100 H7'2        16.7921   -45.7161    22.6321 H            1 CO8701   0.0000
   101 H8'1        14.6979   -46.5608    23.3114 H            1 CO8701   0.0000
   102 H8'2        14.2344   -46.6874    21.7507 H            1 CO8701   0.0000
   103 H8'3        15.4376   -47.6308    22.3242 H            1 CO8701   0.0000
@<TRIPOS>BOND
     1    1    2      ar
     2    1    6      ar
     3    2    3      ar
     4    3    4      ar
     5    4    5      ar
     6    4   10       1
     7    5    6      ar
     8    5    8       1
     9    6    7       1
    10    8    9       2
    11    9   10       1
    12   10   11       1
    13   11   12       1
    14   11   21       1
    15   12   13       1
    16   12   14       1
    17   14   15       1
    18   14   20       1
    19   15   16       1
    20   16   17      ar
    21   16   18      ar
    22   16   19      ar
    23   20   21       1
    24   20   22       1
    25   22   23       1
    26   23   24       1
    27   24   25      ar
    28   24   26      ar
    29   24   27       1
    30   27   28       1
    31   28   29      ar
    32   28   30      ar
    33   28   31       1
    34   31   33       1
    35   32   33       1
    36   32   34       1
    37   32   35       1
    38   32   36       1
    39   36   37       1
    40   36   38       1
    41   38   39       2
    42   38   40      am
    43   40   41       1
    44   41   42       1
    45   42   43       1
    46   43   44       2
    47   43   45      am
    48   45   46       1
    49   46   47       1
    50   47   48       1
    51   48   49       1
    52   49   50       2
    53   49   51       1
    54   51   52       1
    55   52   53       1
    56   53   54       1
    57   54   55       1
    58   55   56       1
    59   56   57       1
    60    2   58       1
    61    7   59       1
    62    7   60       1
    63    9   61       1
    64   11   62       1
    65   12   63       1
    66   13   64       1
    67   14   65       1
    68   57  103       1
    69   57  102       1
    70   20   66       1
    71   22   67       1
    72   22   68       1
    73   57  101       1
    74   56  100       1
    75   33   69       1
    76   33   70       1
    77   34   71       1
    78   34   72       1
    79   34   73       1
    80   35   74       1
    81   35   75       1
    82   35   76       1
    83   36   77       1
    84   37   78       1
    85   40   79       1
    86   41   80       1
    87   41   81       1
    88   42   82       1
    89   42   83       1
    90   45   84       1
    91   46   85       1
    92   46   86       1
    93   47   87       1
    94   47   88       1
    95   51   89       1
    96   51   90       1
    97   52   91       1
    98   52   92       1
    99   53   93       1
   100   53   94       1
   101   54   95       1
   102   54   96       1
   103   55   97       1
   104   55   98       1
   105   56   99       1
@<TRIPOS>SUBSTRUCTURE
     1 CO8701      1 GROUP             4 B     CO8     0 **** CO8 B 701
