@<TRIPOS>MOLECULE
3orl_AGS_1_ligand
   43    45     1     0     0
SMALL
NO_CHARGES


@<TRIPOS>ATOM
     1 PG          25.0490    33.1300     8.8410 P.3          1 AGS340   0.0000
     2 S1G         23.7820    32.4270     7.8890 S.2          1 AGS340   0.0000
     3 O2G         26.4160    32.2850     8.8380 O.co2        1 AGS340  -1.0000
     4 O3G         24.5480    33.2350    10.3370 O.co2        1 AGS340  -1.0000
     5 PB          24.0880    35.7210     8.2470 P.3          1 AGS340   0.0000
     6 O1B         23.5530    35.8420     6.8670 O.co2        1 AGS340   0.0000
     7 O2B         22.9590    35.3640     9.2320 O.co2        1 AGS340  -1.0000
     8 O3B         25.2750    34.6280     8.2520 O.3          1 AGS340   0.0000
     9 PA          25.6010    37.2380    10.1210 P.3          1 AGS340   0.0000
    10 O1A         24.6450    37.0210    11.2480 O.co2        1 AGS340   0.0000
    11 O2A         26.8540    36.3090    10.2240 O.co2        1 AGS340  -1.0000
    12 O3A         24.8200    37.0900     8.7090 O.3          1 AGS340   0.0000
    13 O5'         26.1180    38.7590    10.0960 O.3          1 AGS340   0.0000
    14 C5'         27.0790    39.1030     9.1270 C.3          1 AGS340   0.0000
    15 C4'         27.8680    40.3190     9.5800 C.3          1 AGS340   0.0000
    16 O4'         26.9670    41.3540     9.9060 O.3          1 AGS340   0.0000
    17 C3'         28.7020    40.0610    10.8200 C.3          1 AGS340   0.0000
    18 O3'         30.0180    39.6720    10.4920 O.3          1 AGS340   0.0000
    19 C2'         28.6390    41.3840    11.5670 C.3          1 AGS340   0.0000
    20 O2'         29.6970    42.2360    11.1790 O.3          1 AGS340   0.0000
    21 C1'         27.3390    42.0170    11.1000 C.3          1 AGS340   0.0000
    22 N9          26.2810    41.8480    12.1180 N.pl3        1 AGS340   0.0000
    23 C8          25.4740    40.7500    12.2910 C.2          1 AGS340   0.0000
    24 N7          24.6290    40.9810    13.3190 N.2          1 AGS340   0.0000
    25 C5          24.8820    42.2130    13.8060 C.ar         1 AGS340   0.0000
    26 C6          24.3150    42.9380    14.8480 C.ar         1 AGS340   0.0000
    27 N6          23.2950    42.4290    15.5480 N.pl3        1 AGS340   0.0000
    28 N1          24.7870    44.2090    15.1270 N.ar         1 AGS340   0.0000
    29 C2          25.8140    44.7510    14.3740 C.ar         1 AGS340   0.0000
    30 N3          26.3760    44.0220    13.3400 N.ar         1 AGS340   0.0000
    31 C4          25.9160    42.7720    13.0600 C.ar         1 AGS340   0.0000
    32 H5'1        26.6184    39.3107     8.2641 H            1 AGS340   0.0000
    33 H5'2        27.7044    38.3340     8.9944 H            1 AGS340   0.0000
    34 H4'         28.4648    40.6218     8.8370 H            1 AGS340   0.0000
    35 H3'         28.2700    39.3463    11.3700 H            1 AGS340   0.0000
    36 H5          30.6436    39.9720    11.2122 H            1 AGS340   0.0000
    37 H2'         28.6356    41.2402    12.5566 H            1 AGS340   0.0000
    38 H7          29.6334    43.0973    11.6832 H            1 AGS340   0.0000
    39 H1'         27.4818    42.9898    10.9175 H            1 AGS340   0.0000
    40 H9          25.5069    39.9138    11.7436 H            1 AGS340   0.0000
    41 H10         22.8907    42.9546    16.2966 H            1 AGS340   0.0000
    42 H11         22.9368    41.5229    15.3227 H            1 AGS340   0.0000
    43 H12         26.1505    45.6705    14.5771 H            1 AGS340   0.0000
@<TRIPOS>BOND
     1    1    2       2
     2    1    3      ar
     3    1    4      ar
     4    1    8       1
     5    5    6      ar
     6    5    7      ar
     7    5    8       1
     8    5   12       1
     9    9   10      ar
    10    9   11      ar
    11    9   12       1
    12    9   13       1
    13   13   14       1
    14   14   15       1
    15   15   16       1
    16   15   17       1
    17   16   21       1
    18   17   18       1
    19   17   19       1
    20   19   20       1
    21   19   21       1
    22   21   22       1
    23   22   23       1
    24   22   31       1
    25   23   24       2
    26   24   25       1
    27   25   26      ar
    28   25   31      ar
    29   26   27       1
    30   26   28      ar
    31   28   29      ar
    32   29   30      ar
    33   30   31      ar
    34   29   43       1
    35   27   42       1
    36   27   41       1
    37   23   40       1
    38   14   32       1
    39   14   33       1
    40   15   34       1
    41   17   35       1
    42   18   36       1
    43   19   37       1
    44   20   38       1
    45   21   39       1
@<TRIPOS>SUBSTRUCTURE
     1 AGS340      1 GROUP             4 A     AGS     0 **** AGS A 340
