@<TRIPOS>MOLECULE
3oxk_5GP_1_ligand
   36    38     1     0     0
SMALL
NO_CHARGES


@<TRIPOS>ATOM
     1 P            1.9110     2.4300   -10.3600 P.3          1 5GP125   0.0000
     2 O1P          2.7130     2.0670   -11.5720 O.co2        1 5GP125   0.0000
     3 O2P          2.5090     2.0070    -9.0490 O.co2        1 5GP125  -1.0000
     4 O3P          0.4540     2.0050   -10.4350 O.co2        1 5GP125  -1.0000
     5 O5'          1.9580     4.0190   -10.0660 O.3          1 5GP125   0.0000
     6 C5'          2.0110     4.9510   -11.1440 C.3          1 5GP125   0.0000
     7 C4'          1.5700     6.2710   -10.5680 C.3          1 5GP125   0.0000
     8 O4'          2.0450     7.2440   -11.4650 O.3          1 5GP125   0.0000
     9 C3'          0.0440     6.4010   -10.4670 C.3          1 5GP125   0.0000
    10 O3'         -0.3660     6.7180    -9.1210 O.3          1 5GP125   0.0000
    11 C2'         -0.2700     7.4920   -11.4930 C.3          1 5GP125   0.0000
    12 O2'         -1.3690     8.3640   -11.1910 O.3          1 5GP125   0.0000
    13 C1'          1.0560     8.2440   -11.5630 C.3          1 5GP125   0.0000
    14 N9           1.3080     8.8930   -12.8590 N.pl3        1 5GP125   0.0000
    15 C8           1.2310     8.2640   -14.0440 C.2          1 5GP125   0.0000
    16 N7           1.5480     9.1440   -15.0030 N.2          1 5GP125   0.0000
    17 C5           1.8150    10.3290   -14.4140 C.2          1 5GP125   0.0000
    18 C6           2.1710    11.5660   -14.9030 C.2          1 5GP125   0.0000
    19 O6           2.2950    11.7780   -16.1450 O.2          1 5GP125   0.0000
    20 N1           2.3880    12.5590   -14.0190 N.pl3        1 5GP125   0.0000
    21 C2           2.2710    12.3820   -12.6830 C.2          1 5GP125   0.0000
    22 N2           2.4960    13.4260   -11.8650 N.pl3        1 5GP125   0.0000
    23 N3           1.8930    11.2000   -12.1670 N.2          1 5GP125   0.0000
    24 C4           1.6930    10.1600   -13.0360 C.2          1 5GP125   0.0000
    25 H5'1         1.3946     4.6686   -11.8790 H            1 5GP125   0.0000
    26 H5'2         2.9433     5.0201   -11.4989 H            1 5GP125   0.0000
    27 H4'          1.9841     6.4058    -9.6678 H            1 5GP125   0.0000
    28 H3'         -0.3830     5.5428   -10.7520 H            1 5GP125   0.0000
    29 H5           0.0466     7.5853    -8.8424 H            1 5GP125   0.0000
    30 H2'         -0.4392     7.0591   -12.3784 H            1 5GP125   0.0000
    31 H7          -1.1881     8.8431   -10.3321 H            1 5GP125   0.0000
    32 H1'          1.1352     8.9004   -10.8127 H            1 5GP125   0.0000
    33 H9           0.9807     7.3062   -14.1853 H            1 5GP125   0.0000
    34 H10          2.6455    13.4617   -14.3636 H            1 5GP125   0.0000
    35 H11          2.4138    13.3122   -10.8749 H            1 5GP125   0.0000
    36 H12          2.7455    14.3158   -12.2470 H            1 5GP125   0.0000
@<TRIPOS>BOND
     1    1    2      ar
     2    1    3      ar
     3    1    4      ar
     4    1    5       1
     5    5    6       1
     6    6    7       1
     7    7    8       1
     8    7    9       1
     9    8   13       1
    10    9   10       1
    11    9   11       1
    12   11   12       1
    13   11   13       1
    14   13   14       1
    15   14   15       1
    16   14   24       1
    17   15   16       2
    18   16   17       1
    19   17   18       1
    20   17   24       2
    21   18   19       2
    22   18   20       1
    23   20   21       1
    24   21   22       1
    25   21   23       2
    26   23   24       1
    27   22   36       1
    28   22   35       1
    29    6   25       1
    30    6   26       1
    31    7   27       1
    32    9   28       1
    33   10   29       1
    34   11   30       1
    35   12   31       1
    36   13   32       1
    37   15   33       1
    38   20   34       1
@<TRIPOS>SUBSTRUCTURE
     1 5GP125      1 GROUP             4 A     5GP     0 **** 5GP A 125
