@<TRIPOS>MOLECULE
2ohi_FMN_8_ligand
   50    52     1     0     0
SMALL
NO_CHARGES


@<TRIPOS>ATOM
     1 N1          70.5680    62.9390    43.5400 N.2          1 FMN3702   0.0000
     2 C2          70.9320    64.2840    43.5280 C.2          1 FMN3702   0.0000
     3 O2          72.0790    64.6370    43.7950 O.2          1 FMN3702   0.0000
     4 N3          69.9920    65.2490    43.2270 N.pl3        1 FMN3702   0.0000
     5 C4          68.6970    64.8830    42.9270 C.2          1 FMN3702   0.0000
     6 O4          67.8770    65.7530    42.6520 O.2          1 FMN3702   0.0000
     7 C4A         68.3210    63.5470    42.9440 C.2          1 FMN3702   0.0000
     8 N5          67.0140    63.2070    42.6420 N.2          1 FMN3702   0.0000
     9 C5A         66.6220    61.8810    42.6520 C.ar         1 FMN3702   0.0000
    10 C6          65.3020    61.5510    42.3520 C.ar         1 FMN3702   0.0000
    11 C7          64.8880    60.2180    42.3600 C.ar         1 FMN3702   0.0000
    12 C7M         63.4490    59.8850    42.1070 C.3          1 FMN3702   0.0000
    13 C8          65.8010    59.2090    42.6690 C.ar         1 FMN3702   0.0000
    14 C8M         65.3190    57.8410    43.0790 C.3          1 FMN3702   0.0000
    15 C9          67.1140    59.5600    42.9690 C.ar         1 FMN3702   0.0000
    16 C9A         67.5480    60.8880    42.9620 C.ar         1 FMN3702   0.0000
    17 N10         68.8780    61.2200    43.2720 N.pl3        1 FMN3702   0.0000
    18 C10         69.2610    62.5630    43.2500 C.2          1 FMN3702   0.0000
    19 C1'         69.9450    60.1420    43.4500 C.3          1 FMN3702   0.0000
    20 C2'         70.0990    59.6340    44.8910 C.3          1 FMN3702   0.0000
    21 O2'         70.2650    60.7170    45.7890 O.3          1 FMN3702   0.0000
    22 C3'         71.2600    58.6310    45.0240 C.3          1 FMN3702   0.0000
    23 O3'         70.9430    57.4650    44.2930 O.3          1 FMN3702   0.0000
    24 C4'         71.6150    58.2140    46.4670 C.3          1 FMN3702   0.0000
    25 O4'         72.7590    57.3740    46.4430 O.3          1 FMN3702   0.0000
    26 C5'         70.4970    57.4770    47.2150 C.3          1 FMN3702   0.0000
    27 O5'         70.9070    57.1320    48.5300 O.3          1 FMN3702   0.0000
    28 P           70.3190    55.8570    49.3580 P.3          1 FMN3702   0.0000
    29 O1P         71.0820    54.6170    49.0050 O.co2        1 FMN3702   0.0000
    30 O2P         70.4600    56.0790    50.8380 O.co2        1 FMN3702  -1.0000
    31 O3P         68.8690    55.6390    49.0150 O.co2        1 FMN3702  -1.0000
    32 H1          70.2507    66.2150    43.2265 H            1 FMN3702   0.0000
    33 H2          64.6473    62.2734    42.1296 H            1 FMN3702   0.0000
    34 H7M1        63.3241    58.8937    42.1479 H            1 FMN3702   0.0000
    35 H7M2        62.8785    60.3218    42.8025 H            1 FMN3702   0.0000
    36 H7M3        63.1841    60.2173    41.2018 H            1 FMN3702   0.0000
    37 H8M1        66.1057    57.2511    43.2610 H            1 FMN3702   0.0000
    38 H8M2        64.7617    57.9179    43.9057 H            1 FMN3702   0.0000
    39 H8M3        64.7698    57.4464    42.3423 H            1 FMN3702   0.0000
    40 H9          67.7678    58.8384    43.1969 H            1 FMN3702   0.0000
    41 H1'1        70.8231    60.5194    43.1559 H            1 FMN3702   0.0000
    42 H1'2        69.7046    59.3649    42.8684 H            1 FMN3702   0.0000
    43 H2'         69.2549    59.1585    45.1389 H            1 FMN3702   0.0000
    44 H13         69.4652    61.3153    45.7411 H            1 FMN3702   0.0000
    45 H3'         72.0730    59.0427    44.6122 H            1 FMN3702   0.0000
    46 H15         71.6919    56.8072    44.3735 H            1 FMN3702   0.0000
    47 H4'         71.8445    59.0393    46.9830 H            1 FMN3702   0.0000
    48 H17         73.2755    57.4898    47.2914 H            1 FMN3702   0.0000
    49 H5'1        70.2640    56.6426    46.7155 H            1 FMN3702   0.0000
    50 H5'2        69.6931    58.0693    47.2678 H            1 FMN3702   0.0000
@<TRIPOS>BOND
     1    1    2       1
     2    1   18       2
     3    2    3       2
     4    2    4       1
     5    4    5       1
     6    5    6       2
     7    5    7       1
     8    7    8       2
     9    7   18       1
    10    8    9       1
    11    9   10      ar
    12    9   16      ar
    13   10   11      ar
    14   11   12       1
    15   11   13      ar
    16   13   14       1
    17   13   15      ar
    18   15   16      ar
    19   16   17       1
    20   17   18       1
    21   17   19       1
    22   19   20       1
    23   20   21       1
    24   20   22       1
    25   22   23       1
    26   22   24       1
    27   24   25       1
    28   24   26       1
    29   26   27       1
    30   27   28       1
    31   28   29      ar
    32   28   30      ar
    33   28   31      ar
    34    4   32       1
    35   10   33       1
    36   12   34       1
    37   12   35       1
    38   12   36       1
    39   14   37       1
    40   14   38       1
    41   14   39       1
    42   15   40       1
    43   19   41       1
    44   19   42       1
    45   20   43       1
    46   21   44       1
    47   22   45       1
    48   23   46       1
    49   24   47       1
    50   25   48       1
    51   26   49       1
    52   26   50       1
@<TRIPOS>SUBSTRUCTURE
     1 FMN3702     1 GROUP             4 J     FMN     0 **** FMN J3702
