@<TRIPOS>MOLECULE
3njo_P2M_2_ligand
   35    37     1     0     0
SMALL
NO_CHARGES


@<TRIPOS>ATOM
     1 S           -9.0030     2.6370    17.7820 S.o2         1 P2M300   0.0000
     2 C1          -5.8480     1.4610    15.1040 C.ar         1 P2M300   0.0000
     3 N1         -10.3520     2.7490    16.8820 N.3          1 P2M300   0.0000
     4 O1          -9.2070     1.7090    18.7470 O.2          1 P2M300   0.0000
     5 C2          -6.4090     2.7170    14.9570 C.ar         1 P2M300   0.0000
     6 N2         -10.4110     2.6700    14.0060 N.ar         1 P2M300   0.0000
     7 O2          -8.6770     3.9130    18.1080 O.2          1 P2M300   0.0000
     8 C3          -7.3980     3.0810    15.8580 C.ar         1 P2M300   0.0000
     9 C4          -7.8420     2.1520    16.8080 C.ar         1 P2M300   0.0000
    10 C5          -7.1930     0.9940    16.9840 C.ar         1 P2M300   0.0000
    11 C6          -6.1680     0.6180    16.1110 C.ar         1 P2M300   0.0000
    12 C7          -8.0760     4.2960    15.6780 C.ar         1 P2M300   0.0000
    13 C8          -7.7410     5.1270    14.6690 C.ar         1 P2M300   0.0000
    14 C9          -6.6700     4.7830    13.8110 C.ar         1 P2M300   0.0000
    15 C10         -6.0130     3.6010    13.9470 C.ar         1 P2M300   0.0000
    16 C11        -11.0410     1.7000    16.1580 C.3          1 P2M300   0.0000
    17 C12        -10.6630     1.5800    14.7150 C.ar         1 P2M300   0.0000
    18 C13         -9.8830     2.5210    12.7960 C.ar         1 P2M300   0.0000
    19 C14         -9.6780     1.3020    12.1990 C.ar         1 P2M300   0.0000
    20 C15         -9.9090     0.1910    12.9520 C.ar         1 P2M300   0.0000
    21 C16        -10.4190     0.3280    14.2200 C.ar         1 P2M300   0.0000
    22 H1          -5.1715     1.1616    14.4312 H            1 P2M300   0.0000
    23 H2         -11.0407     3.1173    17.5065 H            1 P2M300   0.0000
    24 H3          -7.4431     0.3947    17.7444 H            1 P2M300   0.0000
    25 H4          -5.6853    -0.2499    16.2281 H            1 P2M300   0.0000
    26 H5          -8.8144     4.5485    16.3033 H            1 P2M300   0.0000
    27 H6          -8.2456     5.9789    14.5289 H            1 P2M300   0.0000
    28 H7          -6.3917     5.4203    13.0924 H            1 P2M300   0.0000
    29 H8          -5.2580     3.3666    13.3346 H            1 P2M300   0.0000
    30 H9         -12.0232     1.8810    16.2082 H            1 P2M300   0.0000
    31 H10        -10.8393     0.8289    16.6058 H            1 P2M300   0.0000
    32 H11         -9.6200     3.3434    12.2916 H            1 P2M300   0.0000
    33 H12         -9.3715     1.2326    11.2497 H            1 P2M300   0.0000
    34 H13         -9.7089    -0.7173    12.5847 H            1 P2M300   0.0000
    35 H14        -10.6103    -0.4804    14.7766 H            1 P2M300   0.0000
@<TRIPOS>BOND
     1    1    3       1
     2    1    4       2
     3    1    7       2
     4    1    9       1
     5    2    5      ar
     6    2   11      ar
     7    3   16       1
     8    5    8      ar
     9    5   15      ar
    10    6   17      ar
    11    6   18      ar
    12    8    9      ar
    13    8   12      ar
    14    9   10      ar
    15   10   11      ar
    16   12   13      ar
    17   13   14      ar
    18   14   15      ar
    19   16   17       1
    20   17   21      ar
    21   18   19      ar
    22   19   20      ar
    23   20   21      ar
    24    2   22       1
    25    3   23       1
    26   10   24       1
    27   11   25       1
    28   12   26       1
    29   13   27       1
    30   14   28       1
    31   15   29       1
    32   16   30       1
    33   16   31       1
    34   18   32       1
    35   19   33       1
    36   20   34       1
    37   21   35       1
@<TRIPOS>SUBSTRUCTURE
     1 P2M300      1 GROUP             4 B     P2M     0 **** P2M B 300
