@<TRIPOS>MOLECULE
2xje_U5P_1_ligand
   32    33     1     0     0
SMALL
NO_CHARGES


@<TRIPOS>ATOM
     1 N1           1.0990    14.1780    41.6690 N.pl3        1 U5P1489   0.0000
     2 C2           0.3290    15.1920    42.2850 C.2          1 U5P1489   0.0000
     3 N3          -0.9420    14.9830    42.6590 N.pl3        1 U5P1489   0.0000
     4 C4          -1.5300    13.8010    42.4640 C.2          1 U5P1489   0.0000
     5 C5          -0.8150    12.7710    41.8590 C.2          1 U5P1489   0.0000
     6 C6           0.5060    12.9890    41.4740 C.2          1 U5P1489   0.0000
     7 O2           0.8290    16.3030    42.5030 O.2          1 U5P1489   0.0000
     8 O4          -2.7190    13.6330    42.8220 O.2          1 U5P1489   0.0000
     9 C1'          2.5150    14.3520    41.2240 C.3          1 U5P1489   0.0000
    10 C2'          2.6340    15.1330    39.9380 C.3          1 U5P1489   0.0000
    11 O2'          2.4070    14.2180    38.8760 O.3          1 U5P1489   0.0000
    12 C3'          4.0640    15.6510    39.9580 C.3          1 U5P1489   0.0000
    13 C4'          4.5240    15.5900    41.4390 C.3          1 U5P1489   0.0000
    14 O3'          4.8190    14.7940    39.0710 O.3          1 U5P1489   0.0000
    15 O4'          3.4160    15.0120    42.1370 O.3          1 U5P1489   0.0000
    16 C5'          4.8840    16.9060    42.1860 C.3          1 U5P1489   0.0000
    17 O5'          6.3020    17.1870    42.1370 O.3          1 U5P1489   0.0000
    18 P            7.1390    18.3360    42.9730 P.3          1 U5P1489   0.0000
    19 O1P          8.2650    18.7620    42.0230 O.co2        1 U5P1489   0.0000
    20 O2P          6.1160    19.4200    43.2390 O.co2        1 U5P1489  -1.0000
    21 O3P          7.6830    17.6920    44.2350 O.co2        1 U5P1489  -1.0000
    22 H1          -1.4567    15.7240    43.0904 H            1 U5P1489   0.0000
    23 H2          -1.2459    11.8823    41.7021 H            1 U5P1489   0.0000
    24 H3           1.0216    12.2473    41.0450 H            1 U5P1489   0.0000
    25 H1'          2.8851    13.4392    41.0511 H            1 U5P1489   0.0000
    26 H2'          1.9774    15.8868    39.9115 H            1 U5P1489   0.0000
    27 H6           1.6166    14.5172    38.3414 H            1 U5P1489   0.0000
    28 H3'          4.0916    16.5949    39.6288 H            1 U5P1489   0.0000
    29 H4'          5.3017    14.9647    41.5045 H            1 U5P1489   0.0000
    30 H9           5.7725    15.0946    39.0487 H            1 U5P1489   0.0000
    31 H5'1         4.6047    16.8210    43.1424 H            1 U5P1489   0.0000
    32 H5'2         4.3898    17.6642    41.7606 H            1 U5P1489   0.0000
@<TRIPOS>BOND
     1    1    2       1
     2    1    6       1
     3    1    9       1
     4    2    3       1
     5    2    7       2
     6    3    4       1
     7    4    5       1
     8    4    8       2
     9    5    6       2
    10    9   10       1
    11    9   15       1
    12   10   11       1
    13   10   12       1
    14   12   13       1
    15   12   14       1
    16   13   15       1
    17   13   16       1
    18   16   17       1
    19   17   18       1
    20   18   19      ar
    21   18   20      ar
    22   18   21      ar
    23    3   22       1
    24    5   23       1
    25    6   24       1
    26    9   25       1
    27   10   26       1
    28   11   27       1
    29   12   28       1
    30   13   29       1
    31   14   30       1
    32   16   31       1
    33   16   32       1
@<TRIPOS>SUBSTRUCTURE
     1 U5P1489     1 GROUP             4 A     U5P     0 **** U5P A1489
