@<TRIPOS>MOLECULE
1n7h_NDP_1_ligand
   74    78     1     0     0
SMALL
NO_CHARGES


@<TRIPOS>ATOM
     1 PA          49.1020    35.6820     7.7160 P.3          1 NDP601   0.0000
     2 O1A         49.3190    37.0290     8.3120 O.co2        1 NDP601   0.0000
     3 O2A         47.9220    35.4640     6.8380 O.co2        1 NDP601  -1.0000
     4 O5B         48.9630    34.6260     8.8900 O.3          1 NDP601   0.0000
     5 C5B         49.7690    34.6930    10.0550 C.3          1 NDP601   0.0000
     6 C4B         49.3920    33.5620    10.9770 C.3          1 NDP601   0.0000
     7 O4B         50.1950    33.6530    12.1940 O.3          1 NDP601   0.0000
     8 C3B         47.9390    33.6070    11.4590 C.3          1 NDP601   0.0000
     9 O3B         47.5090    32.2680    11.6910 O.3          1 NDP601   0.0000
    10 C2B         48.0870    34.3590    12.7800 C.3          1 NDP601   0.0000
    11 O2B         46.9850    34.2520    13.6810 O.3          1 NDP601   0.0000
    12 C1B         49.3320    33.6530    13.3180 C.3          1 NDP601   0.0000
    13 N9A         50.0190    34.3160    14.4310 N.pl3        1 NDP601   0.0000
    14 C8A         50.4000    35.6310    14.5300 C.2          1 NDP601   0.0000
    15 N7A         50.9330    35.9420    15.6910 N.2          1 NDP601   0.0000
    16 C5A         50.8970    34.7490    16.4040 C.ar         1 NDP601   0.0000
    17 C6A         51.3090    34.4100    17.7100 C.ar         1 NDP601   0.0000
    18 N6A         51.8450    35.2770    18.5670 N.pl3        1 NDP601   0.0000
    19 N1A         51.1420    33.1330    18.1110 N.ar         1 NDP601   0.0000
    20 C2A         50.5910    32.2600    17.2540 C.ar         1 NDP601   0.0000
    21 N3A         50.1610    32.4570    16.0090 N.ar         1 NDP601   0.0000
    22 C4A         50.3420    33.7400    15.6400 C.ar         1 NDP601   0.0000
    23 O3          50.4310    35.2160     6.9020 O.3          1 NDP601   0.0000
    24 PN          50.7210    34.3280     5.5690 P.3          1 NDP601   0.0000
    25 O1N         50.4160    35.3090     4.4610 O.co2        1 NDP601   0.0000
    26 O2N         49.7400    33.1890     5.7580 O.co2        1 NDP601  -1.0000
    27 O5D         52.1880    33.9700     5.7500 O.3          1 NDP601   0.0000
    28 C5D         52.5570    32.7480     6.3860 C.3          1 NDP601   0.0000
    29 C4D         53.9760    32.8400     6.8880 C.3          1 NDP601   0.0000
    30 O4D         54.8660    33.0680     5.7640 O.3          1 NDP601   0.0000
    31 C3D         54.2380    33.9860     7.8590 C.3          1 NDP601   0.0000
    32 O3D         55.2990    33.6090     8.7300 O.3          1 NDP601   0.0000
    33 C2D         54.6900    35.1180     6.9420 C.3          1 NDP601   0.0000
    34 O2D         55.5230    36.0110     7.6690 O.3          1 NDP601   0.0000
    35 C1D         55.4950    34.3290     5.9090 C.3          1 NDP601   0.0000
    36 N1N         55.7220    34.8650     4.5580 N.pl3        1 NDP601   0.0000
    37 C2N         54.6980    35.4280     3.7970 C.2          1 NDP601   0.0000
    38 C3N         54.8520    35.8590     2.5340 C.2          1 NDP601   0.0000
    39 C7N         53.7540    36.1480     1.7870 C.2          1 NDP601   0.0000
    40 O7N         53.7980    36.7410     0.7080 O.2          1 NDP601   0.0000
    41 N7N         52.5870    35.6970     2.2620 N.am         1 NDP601   0.0000
    42 C4N         56.2250    35.8450     1.8910 C.3          1 NDP601   0.0000
    43 C5N         57.2010    34.9670     2.6820 C.2          1 NDP601   0.0000
    44 C6N         56.9360    34.5460     3.9450 C.2          1 NDP601   0.0000
    45 P2B         45.8540    35.2660    13.7300 P.3          1 NDP601   0.0000
    46 O1X         45.3620    35.0490    15.1560 O.co2        1 NDP601   0.0000
    47 O2X         46.4660    36.6330    13.4650 O.co2        1 NDP601  -1.0000
    48 O3X         44.9210    34.7520    12.6350 O.co2        1 NDP601  -1.0000
    49 H5B1        49.6185    35.5669    10.5172 H            1 NDP601   0.0000
    50 H5B2        50.7328    34.6118     9.8012 H            1 NDP601   0.0000
    51 H4B         49.5678    32.6879    10.5242 H            1 NDP601   0.0000
    52 H3B         47.3432    34.0882    10.8160 H            1 NDP601   0.0000
    53 H5          46.5604    32.2726    12.0073 H            1 NDP601   0.0000
    54 H2B         48.2907    35.3219    12.6032 H            1 NDP601   0.0000
    55 H1B         49.1055    32.7125    13.5714 H            1 NDP601   0.0000
    56 H8A         50.2830    36.2911    13.7880 H            1 NDP601   0.0000
    57 H6A1        52.1171    34.9740    19.4803 H            1 NDP601   0.0000
    58 H6A2        51.9754    36.2310    18.2972 H            1 NDP601   0.0000
    59 H2A         50.4885    31.3273    17.5998 H            1 NDP601   0.0000
    60 H5D1        52.4855    31.9974     5.7292 H            1 NDP601   0.0000
    61 H5D2        51.9430    32.5764     7.1564 H            1 NDP601   0.0000
    62 H4D         54.2223    31.9768     7.3287 H            1 NDP601   0.0000
    63 H3D         53.4136    34.2322     8.3686 H            1 NDP601   0.0000
    64 H16         54.9734    33.6182     9.6754 H            1 NDP601   0.0000
    65 H2D         53.9135    35.5907     6.5253 H            1 NDP601   0.0000
    66 H18         55.0120    36.3902     8.4404 H            1 NDP601   0.0000
    67 H1D         56.3955    34.1601     6.3097 H            1 NDP601   0.0000
    68 H2N         53.7947    35.5162     4.2167 H            1 NDP601   0.0000
    69 H7N1        51.7405    35.8754     1.7604 H            1 NDP601   0.0000
    70 H7N2        52.5615    35.1816     3.1186 H            1 NDP601   0.0000
    71 H4N1        56.5796    36.7795     1.8595 H            1 NDP601   0.0000
    72 H4N2        56.1454    35.4871     0.9606 H            1 NDP601   0.0000
    73 H5N         58.0624    34.6950     2.2530 H            1 NDP601   0.0000
    74 H6N         57.6147    34.0036     4.4401 H            1 NDP601   0.0000
@<TRIPOS>BOND
     1    1    2      ar
     2    1    3      ar
     3    1    4       1
     4    1   23       1
     5    4    5       1
     6    5    6       1
     7    6    7       1
     8    6    8       1
     9    7   12       1
    10    8    9       1
    11    8   10       1
    12   10   11       1
    13   10   12       1
    14   11   45       1
    15   12   13       1
    16   13   14       1
    17   13   22       1
    18   14   15       2
    19   15   16       1
    20   16   17      ar
    21   16   22      ar
    22   17   18       1
    23   17   19      ar
    24   19   20      ar
    25   20   21      ar
    26   21   22      ar
    27   23   24       1
    28   24   25      ar
    29   24   26      ar
    30   24   27       1
    31   27   28       1
    32   28   29       1
    33   29   30       1
    34   29   31       1
    35   30   35       1
    36   31   32       1
    37   31   33       1
    38   33   34       1
    39   33   35       1
    40   35   36       1
    41   36   37       1
    42   36   44       1
    43   37   38       2
    44   38   39       1
    45   38   42       1
    46   39   40       2
    47   39   41      am
    48   42   43       1
    49   43   44       2
    50   45   46      ar
    51   45   47      ar
    52   45   48      ar
    53   43   73       1
    54    5   49       1
    55    5   50       1
    56    6   51       1
    57    8   52       1
    58    9   53       1
    59   10   54       1
    60   12   55       1
    61   14   56       1
    62   18   57       1
    63   18   58       1
    64   20   59       1
    65   44   74       1
    66   28   60       1
    67   28   61       1
    68   29   62       1
    69   31   63       1
    70   32   64       1
    71   33   65       1
    72   34   66       1
    73   35   67       1
    74   37   68       1
    75   41   69       1
    76   41   70       1
    77   42   71       1
    78   42   72       1
@<TRIPOS>SUBSTRUCTURE
     1 NDP601      1 GROUP             4 A     NDP     0 **** NDP A 601
