@<TRIPOS>MOLECULE
4azw_ATP_1_ligand
   43    45     1     0     0
SMALL
NO_CHARGES


@<TRIPOS>ATOM
     1 PG          -8.9010    18.1820   -10.4810 P.3          1 ATP1450   0.0000
     2 O1G         -9.3830    19.5820   -10.2390 O.co2        1 ATP1450   0.0000
     3 O2G         -9.4740    17.1280    -9.5300 O.co2        1 ATP1450  -1.0000
     4 O3G         -7.3940    18.2200   -10.6210 O.co2        1 ATP1450  -1.0000
     5 PB          -8.9520    17.0850   -13.2310 P.3          1 ATP1450   0.0000
     6 O1B         -7.5450    16.6230   -12.9560 O.co2        1 ATP1450   0.0000
     7 O2B         -9.2710    17.9300   -14.4280 O.co2        1 ATP1450  -1.0000
     8 O3B         -9.5710    17.8370   -11.9320 O.3          1 ATP1450   0.0000
     9 PA          -9.8870    14.3800   -12.8410 P.3          1 ATP1450   0.0000
    10 O1A         -9.9900    14.5770   -11.3520 O.co2        1 ATP1450   0.0000
    11 O2A         -8.9010    13.4240   -13.3990 O.co2        1 ATP1450  -1.0000
    12 O3A         -9.8350    15.7810   -13.6100 O.3          1 ATP1450   0.0000
    13 O5'        -11.2850    13.8170   -13.3960 O.3          1 ATP1450   0.0000
    14 C5'        -12.4900    14.5090   -13.1800 C.3          1 ATP1450   0.0000
    15 C4'        -13.5800    13.5820   -12.6820 C.3          1 ATP1450   0.0000
    16 O4'        -13.9430    12.5710   -13.6590 O.3          1 ATP1450   0.0000
    17 C3'        -13.1290    12.8250   -11.4420 C.3          1 ATP1450   0.0000
    18 O3'        -13.3240    13.5190   -10.2280 O.3          1 ATP1450   0.0000
    19 C2'        -13.9760    11.5860   -11.5360 C.3          1 ATP1450   0.0000
    20 O2'        -15.2890    11.8740   -11.1210 O.3          1 ATP1450   0.0000
    21 C1'        -14.0550    11.2930   -13.0130 C.3          1 ATP1450   0.0000
    22 N9         -13.0130    10.4000   -13.5920 N.pl3        1 ATP1450   0.0000
    23 C8         -11.8790    10.8050   -14.1960 C.2          1 ATP1450   0.0000
    24 N7         -11.2010     9.7370   -14.7270 N.2          1 ATP1450   0.0000
    25 C5         -11.9650     8.6470   -14.4780 C.ar         1 ATP1450   0.0000
    26 C6         -11.8590     7.2240   -14.7470 C.ar         1 ATP1450   0.0000
    27 N6         -10.7900     6.7500   -15.3910 N.pl3        1 ATP1450   0.0000
    28 N1         -12.8330     6.4090   -14.3110 N.ar         1 ATP1450   0.0000
    29 C2         -13.9330     6.8730   -13.6640 C.ar         1 ATP1450   0.0000
    30 N3         -14.0780     8.1630   -13.3840 N.ar         1 ATP1450   0.0000
    31 C4         -13.1260     9.0740   -13.7220 C.ar         1 ATP1450   0.0000
    32 H5'1       -12.7848    14.9248   -14.0403 H            1 ATP1450   0.0000
    33 H5'2       -12.3361    15.2251   -12.4992 H            1 ATP1450   0.0000
    34 H4'        -14.3902    14.1231   -12.4567 H            1 ATP1450   0.0000
    35 H3'        -12.1644    12.5778   -11.5341 H            1 ATP1450   0.0000
    36 H5         -14.1170    14.1223   -10.3126 H            1 ATP1450   0.0000
    37 H2'        -13.5809    10.8232   -11.0241 H            1 ATP1450   0.0000
    38 H7         -15.3694    11.7173   -10.1366 H            1 ATP1450   0.0000
    39 H1'        -14.9556    10.9088   -13.2161 H            1 ATP1450   0.0000
    40 H9         -11.5728    11.7554   -14.2500 H            1 ATP1450   0.0000
    41 H10        -10.7127     5.7708   -15.5784 H            1 ATP1450   0.0000
    42 H11        -10.0665     7.3742   -15.6860 H            1 ATP1450   0.0000
    43 H12        -14.6490     6.2298   -13.3927 H            1 ATP1450   0.0000
@<TRIPOS>BOND
     1    1    2      ar
     2    1    3      ar
     3    1    4      ar
     4    1    8       1
     5    5    6      ar
     6    5    7      ar
     7    5    8       1
     8    5   12       1
     9    9   10      ar
    10    9   11      ar
    11    9   12       1
    12    9   13       1
    13   13   14       1
    14   14   15       1
    15   15   16       1
    16   15   17       1
    17   16   21       1
    18   17   18       1
    19   17   19       1
    20   19   20       1
    21   19   21       1
    22   21   22       1
    23   22   23       1
    24   22   31       1
    25   23   24       2
    26   24   25       1
    27   25   26      ar
    28   25   31      ar
    29   26   27       1
    30   26   28      ar
    31   28   29      ar
    32   29   30      ar
    33   30   31      ar
    34   29   43       1
    35   27   42       1
    36   27   41       1
    37   23   40       1
    38   14   32       1
    39   14   33       1
    40   15   34       1
    41   17   35       1
    42   18   36       1
    43   19   37       1
    44   20   38       1
    45   21   39       1
@<TRIPOS>SUBSTRUCTURE
     1 ATP1450     1 GROUP             4 A     ATP     0 **** ATP A1450
