@<TRIPOS>MOLECULE
2fvl_NAP_3_ligand
   73    77     1     0     0
SMALL
NO_CHARGES


@<TRIPOS>ATOM
     1 PA          58.6990    22.3810    74.8390 P.3          1 NAP1002   0.0000
     2 O1A         58.4600    23.5850    75.6350 O.co2        1 NAP1002   0.0000
     3 O2A         58.0710    21.1080    75.2950 O.co2        1 NAP1002  -1.0000
     4 O5B         60.2860    22.0610    74.7380 O.3          1 NAP1002   0.0000
     5 C5B         61.0370    22.5970    73.6850 C.3          1 NAP1002   0.0000
     6 C4B         62.5510    22.3300    73.7320 C.3          1 NAP1002   0.0000
     7 O4B         63.0280    21.7840    74.9590 O.3          1 NAP1002   0.0000
     8 C3B         62.9710    21.3730    72.6170 C.3          1 NAP1002   0.0000
     9 O3B         63.7670    22.1450    71.6870 O.3          1 NAP1002   0.0000
    10 C2B         63.8100    20.3110    73.3430 C.3          1 NAP1002   0.0000
    11 O2B         64.9930    20.0360    72.5940 O.3          1 NAP1002   0.0000
    12 C1B         64.1900    20.9970    74.6490 C.3          1 NAP1002   0.0000
    13 N9A         64.3100    20.1000    75.8330 N.pl3        1 NAP1002   0.0000
    14 C8A         63.5340    19.0530    76.1540 C.2          1 NAP1002   0.0000
    15 N7A         63.9290    18.5150    77.3130 N.2          1 NAP1002   0.0000
    16 C5A         64.9680    19.2450    77.7370 C.ar         1 NAP1002   0.0000
    17 C6A         65.7970    19.1590    78.8520 C.ar         1 NAP1002   0.0000
    18 N6A         65.6060    18.1970    79.7740 N.pl3        1 NAP1002   0.0000
    19 N1A         66.7970    20.0690    78.9610 N.ar         1 NAP1002   0.0000
    20 C2A         66.9720    21.0330    78.0490 C.ar         1 NAP1002   0.0000
    21 N3A         66.2080    21.1470    76.9600 N.ar         1 NAP1002   0.0000
    22 C4A         65.1990    20.2600    76.7990 C.ar         1 NAP1002   0.0000
    23 O3          58.3170    22.9190    73.3710 O.3          1 NAP1002   0.0000
    24 PN          57.3620    22.3430    72.1920 P.3          1 NAP1002   0.0000
    25 O1N         58.2310    21.5460    71.2800 O.co2        1 NAP1002   0.0000
    26 O2N         56.6680    23.5110    71.6350 O.co2        1 NAP1002  -1.0000
    27 O5D         56.5390    21.1840    72.8730 O.3          1 NAP1002   0.0000
    28 C5D         55.3110    21.1770    73.4400 C.3          1 NAP1002   0.0000
    29 C4D         54.5720    19.9540    72.9310 C.3          1 NAP1002   0.0000
    30 O4D         53.2260    20.4270    73.2270 O.3          1 NAP1002   0.0000
    31 C3D         54.6330    19.8140    71.3850 C.3          1 NAP1002   0.0000
    32 O3D         55.4970    18.7800    70.9100 O.3          1 NAP1002   0.0000
    33 C2D         53.2110    19.4700    71.0350 C.3          1 NAP1002   0.0000
    34 O2D         52.9240    18.0990    71.3820 O.3          1 NAP1002   0.0000
    35 C1D         52.4610    20.3950    71.9990 C.3          1 NAP1002   0.0000
    36 N1N         52.1390    21.7490    71.5150 N.ar         1 NAP1002   1.0000
    37 C2N         50.7740    22.0130    71.2820 C.ar         1 NAP1002   0.0000
    38 C3N         50.3520    23.2560    70.8220 C.ar         1 NAP1002   0.0000
    39 C7N         48.8500    23.4870    70.6620 C.2          1 NAP1002   0.0000
    40 O7N         48.4213    24.4309    69.9750 O.2          1 NAP1002   0.0000
    41 N7N         48.0748    22.6707    71.3448 N.am         1 NAP1002   0.0000
    42 C4N         51.2980    24.2590    70.5800 C.ar         1 NAP1002   0.0000
    43 C5N         52.6520    24.0020    70.8040 C.ar         1 NAP1002   0.0000
    44 C6N         53.0870    22.7510    71.2640 C.ar         1 NAP1002   0.0000
    45 P2B         65.3910    18.5480    72.1330 P.3          1 NAP1002   0.0000
    46 O1X         66.8460    18.7020    71.4950 O.co2        1 NAP1002   0.0000
    47 O2X         65.5840    17.6740    73.4750 O.co2        1 NAP1002  -1.0000
    48 O3X         64.4190    18.0420    71.1730 O.co2        1 NAP1002  -1.0000
    49 H5B1        60.9009    23.5877    73.6855 H            1 NAP1002   0.0000
    50 H5B2        60.6850    22.2127    72.8316 H            1 NAP1002   0.0000
    51 H4B         63.0201    23.2002    73.5813 H            1 NAP1002   0.0000
    52 H3B         62.1764    20.9656    72.1669 H            1 NAP1002   0.0000
    53 H5          64.5670    22.5145    72.1597 H            1 NAP1002   0.0000
    54 H2B         63.2811    19.4786    73.5085 H            1 NAP1002   0.0000
    55 H1B         65.0022    21.5699    74.5393 H            1 NAP1002   0.0000
    56 H8A         62.7677    18.7216    75.6036 H            1 NAP1002   0.0000
    57 H6A1        66.2064    18.1428    80.5718 H            1 NAP1002   0.0000
    58 H6A2        64.8637    17.5365    79.6611 H            1 NAP1002   0.0000
    59 H2A         67.7068    21.6966    78.1894 H            1 NAP1002   0.0000
    60 H5D1        54.8135    22.0059    73.1842 H            1 NAP1002   0.0000
    61 H5D2        55.3962    21.1331    74.4354 H            1 NAP1002   0.0000
    62 H4D         54.8134    19.1134    73.4159 H            1 NAP1002   0.0000
    63 H3D         54.8857    20.6887    70.9714 H            1 NAP1002   0.0000
    64 H16         56.4156    19.1503    70.7721 H            1 NAP1002   0.0000
    65 H2D         52.9988    19.6696    70.0784 H            1 NAP1002   0.0000
    66 H18         51.9557    18.0099    71.6152 H            1 NAP1002   0.0000
    67 H1D         51.5915    19.9488    72.2110 H            1 NAP1002   0.0000
    68 H2N         50.0983    21.2952    71.4501 H            1 NAP1002   0.0000
    69 H7N1        47.0867    22.8223    71.3684 H            1 NAP1002   0.0000
    70 H7N2        48.4742    21.8990    71.8398 H            1 NAP1002   0.0000
    71 H4N         51.0053    25.1558    70.2481 H            1 NAP1002   0.0000
    72 H5N         53.3235    24.7231    70.6333 H            1 NAP1002   0.0000
    73 H6N         54.0605    22.5758    71.4111 H            1 NAP1002   0.0000
@<TRIPOS>BOND
     1    1    2      ar
     2    1    3      ar
     3    1    4       1
     4    1   23       1
     5    4    5       1
     6    5    6       1
     7    6    7       1
     8    6    8       1
     9    7   12       1
    10    8    9       1
    11    8   10       1
    12   10   11       1
    13   10   12       1
    14   11   45       1
    15   12   13       1
    16   13   14       1
    17   13   22       1
    18   14   15       2
    19   15   16       1
    20   16   17      ar
    21   16   22      ar
    22   17   18       1
    23   17   19      ar
    24   19   20      ar
    25   20   21      ar
    26   21   22      ar
    27   23   24       1
    28   24   25      ar
    29   24   26      ar
    30   24   27       1
    31   27   28       1
    32   28   29       1
    33   29   30       1
    34   29   31       1
    35   30   35       1
    36   31   32       1
    37   31   33       1
    38   33   34       1
    39   33   35       1
    40   35   36       1
    41   36   37      ar
    42   36   44      ar
    43   37   38      ar
    44   38   39       1
    45   38   42      ar
    46   39   40       2
    47   39   41      am
    48   42   43      ar
    49   43   44      ar
    50   45   46      ar
    51   45   47      ar
    52   45   48      ar
    53   43   72       1
    54    5   49       1
    55    5   50       1
    56    6   51       1
    57    8   52       1
    58    9   53       1
    59   10   54       1
    60   12   55       1
    61   14   56       1
    62   18   57       1
    63   18   58       1
    64   20   59       1
    65   44   73       1
    66   28   60       1
    67   28   61       1
    68   29   62       1
    69   31   63       1
    70   32   64       1
    71   33   65       1
    72   34   66       1
    73   35   67       1
    74   37   68       1
    75   41   69       1
    76   41   70       1
    77   42   71       1
@<TRIPOS>SUBSTRUCTURE
     1 NAP1002     1 GROUP             4 C     NAP     0 **** NAP C1002
