@<TRIPOS>MOLECULE
./coach420/4f10/ligand.pdb
 48 51 0 0 0
SMALL
GASTEIGER

@<TRIPOS>ATOM
      1  C1       -14.5390  -12.1640   44.1120 C.3   401  MAW401      0.3223
      2  C2       -15.7650  -12.3470   43.1910 C.3   401  MAW401      0.2558
      3  O2       -16.3150  -13.6410   43.4290 O.3   401  MAW401     -0.2132
      4  C3       -16.7680  -11.2630   43.5910 C.3   401  MAW401      0.2138
      5  O3       -17.9840  -11.4400   42.8550 O.3   401  MAW401     -0.2152
      6  C4       -17.1300  -11.2900   44.9440 C.2   401  MAW401      0.0528
      7  C5       -16.2490  -11.7450   45.9150 C.2   401  MAW401      0.2189
      8  O5       -14.9530  -12.1900   45.5740 O.2   401  MAW401     -0.4439
      9  C6       -16.6170  -11.7010   47.2630 C.2   401  MAW401      0.4209
     10  O6A      -15.8750  -12.0900   48.1920 O.co2 401  MAW401     -0.2371
     11  O6B      -17.7650  -11.2720   47.5700 O.co2 401  MAW401     -0.2371
     12  C1       -10.0920  -14.1340   43.6330 C.3   402  LGU402      0.2700
     13  C2       -11.2570  -14.8660   44.3030 C.3   402  LGU402      0.2405
     14  O2       -10.7130  -16.0130   44.9160 O.3   402  LGU402     -0.2149
     15  C3       -11.8710  -13.9700   45.3870 C.3   402  LGU402      0.2172
     16  O3       -10.9170  -13.7810   46.4540 O.3   402  LGU402     -0.2175
     17  C4       -12.3710  -12.6710   44.7380 C.3   402  LGU402      0.1900
     18  O4       -13.3880  -13.0180   43.7680 O.3   402  LGU402     -0.3153
     19  C5       -11.1590  -12.0600   44.0220 C.3   402  LGU402      0.2498
     20  O5       -10.5760  -12.9310   43.0540 O.3   402  LGU402     -0.3170
     21  C6       -11.6060  -10.8320   43.2710 C.2   402  LGU402      0.3940
     22  O6A      -11.5850   -9.7350   43.7870 O.co2 402  LGU402     -0.2429
     23  O6B      -11.9350  -10.9830   42.1080 O.co2 402  LGU402     -0.2429
     24  C1        -4.7730  -13.6180   44.3100 C.3   403  BEM403      0.2700
     25  C2        -5.5980  -12.3050   44.4860 C.3   403  BEM403      0.2405
     26  O2        -5.6780  -11.5660   43.2570 O.3   403  BEM403     -0.2149
     27  C3        -6.9760  -12.6450   45.0430 C.3   403  BEM403      0.2172
     28  O3        -7.7230  -11.4270   45.1510 O.3   403  BEM403     -0.2175
     29  C4        -7.6970  -13.5760   44.0940 C.3   403  BEM403      0.1889
     30  O4        -9.0520  -13.9210   44.6150 O.3   403  BEM403     -0.3252
     31  C5        -6.8060  -14.8370   43.8490 C.3   403  BEM403      0.2497
     32  O5        -5.4760  -14.4910   43.3840 O.3   403  BEM403     -0.3170
     33  C6        -7.4560  -15.7730   42.8300 C.2   403  BEM403      0.3940
     34  O6A       -8.1340  -16.7170   43.2670 O.co2 403  BEM403     -0.2429
     35  O6B       -7.1480  -15.5580   41.6400 O.co2 403  BEM403     -0.2429
     36  C1         0.0440  -13.9090   41.3210 C.3   404  BEM404      0.3028
     37  C2        -1.1910  -14.8470   41.1530 C.3   404  BEM404      0.2434
     38  O2        -0.9340  -16.1110   41.7880 O.3   404  BEM404     -0.2148
     39  C3        -2.3920  -14.2110   41.8420 C.3   404  BEM404      0.2173
     40  O3        -3.2710  -15.3440   41.8640 O.3   404  BEM404     -0.2175
     41  C4        -2.2000  -13.9680   43.3160 C.3   404  BEM404      0.1889
     42  O4        -3.3480  -13.2970   44.1250 O.3   404  BEM404     -0.3252
     43  C5        -0.8230  -13.2930   43.5710 C.3   404  BEM404      0.2498
     44  O5         0.2260  -13.8230   42.7500 O.3   404  BEM404     -0.3149
     45  C6        -0.3520  -13.3610   45.0310 C.2   404  BEM404      0.3940
     46  O6A        0.7680  -12.8890   45.3140 O.co2 404  BEM404     -0.2429
     47  O6B       -1.0580  -14.0370   45.8010 O.co2 404  BEM404     -0.2429
     48  O1         1.2160  -14.2580   40.5560 O.3   404  BEM404     -0.1869
@<TRIPOS>BOND
     1     1     2    1
     2     1    18    1
     3     1     8    1
     4     2     3    1
     5     2     4    1
     6     4     5    1
     7     4     6    1
     8     6     7    2
     9     7     8    1
    10     7     9    1
    11     9    11   ar
    12     9    10   ar
    13    12    20    1
    14    12    13    1
    15    12    30    1
    16    13    14    1
    17    13    15    1
    18    15    17    1
    19    15    16    1
    20    17    18    1
    21    17    19    1
    22    19    20    1
    23    19    21    1
    24    21    23   ar
    25    21    22   ar
    26    24    32    1
    27    24    42    1
    28    24    25    1
    29    25    26    1
    30    25    27    1
    31    27    29    1
    32    27    28    1
    33    29    31    1
    34    29    30    1
    35    31    33    1
    36    31    32    1
    37    33    35   ar
    38    33    34   ar
    39    36    48    1
    40    36    37    1
    41    36    44    1
    42    37    38    1
    43    37    39    1
    44    39    40    1
    45    39    41    1
    46    41    43    1
    47    41    42    1
    48    43    44    1
    49    43    45    1
    50    45    46   ar
    51    45    47   ar
