@<TRIPOS>MOLECULE
3fg2_FAD_1_ligand
   84    89     1     0     0
SMALL
NO_CHARGES


@<TRIPOS>ATOM
     1 PA         114.1440   151.3220    82.5490 P.3          1 FAD449   0.0000
     2 O1A        115.6030   151.4750    82.7860 O.co2        1 FAD449   0.0000
     3 O2A        113.6750   150.6780    81.4540 O.co2        1 FAD449  -1.0000
     4 O5B        113.7660   152.7910    82.2970 O.3          1 FAD449   0.0000
     5 C5B        114.0270   153.8880    83.2290 C.3          1 FAD449   0.0000
     6 C4B        113.7480   155.1620    82.4020 C.3          1 FAD449   0.0000
     7 O4B        113.5470   156.2660    83.3640 O.3          1 FAD449   0.0000
     8 C3B        114.8910   155.6210    81.4780 C.3          1 FAD449   0.0000
     9 O3B        114.5380   155.9570    80.1730 O.3          1 FAD449   0.0000
    10 C2B        115.5420   156.6960    82.3020 C.3          1 FAD449   0.0000
    11 O2B        116.3450   157.5600    81.5590 O.3          1 FAD449   0.0000
    12 C1B        114.3340   157.3920    82.8550 C.3          1 FAD449   0.0000
    13 N9A        114.5220   158.2280    84.0430 N.pl3        1 FAD449   0.0000
    14 C8A        115.3700   157.9930    85.0950 C.2          1 FAD449   0.0000
    15 N7A        115.3200   158.9420    86.0220 N.2          1 FAD449   0.0000
    16 C5A        114.4010   159.8400    85.5630 C.ar         1 FAD449   0.0000
    17 C6A        113.8970   161.1120    86.1280 C.ar         1 FAD449   0.0000
    18 N6A        114.2940   161.6260    87.2690 N.pl3        1 FAD449   0.0000
    19 N1A        112.9480   161.7520    85.3560 N.ar         1 FAD449   0.0000
    20 C2A        112.5030   161.2500    84.1560 C.ar         1 FAD449   0.0000
    21 N3A        112.9120   160.0990    83.5710 N.ar         1 FAD449   0.0000
    22 C4A        113.8650   159.4260    84.3140 C.ar         1 FAD449   0.0000
    23 N1         115.4270   141.9460    81.2690 N.2          1 FAD449   0.0000
    24 C2         114.9100   140.7750    80.8970 C.2          1 FAD449   0.0000
    25 O2         114.0350   140.2550    81.5210 O.2          1 FAD449   0.0000
    26 N3         115.3680   140.0780    79.7310 N.pl3        1 FAD449   0.0000
    27 C4         116.3710   140.5930    78.9280 C.2          1 FAD449   0.0000
    28 O4         116.7300   139.9750    77.9420 O.2          1 FAD449   0.0000
    29 C4X        116.9420   141.8770    79.3230 C.2          1 FAD449   0.0000
    30 N5         117.9210   142.4360    78.5710 N.2          1 FAD449   0.0000
    31 C5X        118.4350   143.6580    78.9670 C.ar         1 FAD449   0.0000
    32 C6         119.4530   144.2360    78.1570 C.ar         1 FAD449   0.0000
    33 C7         120.0210   145.4550    78.4670 C.ar         1 FAD449   0.0000
    34 C7M        121.1020   146.0270    77.5710 C.3          1 FAD449   0.0000
    35 C8         119.5750   146.1840    79.6600 C.ar         1 FAD449   0.0000
    36 C8M        120.1500   147.5250    80.0590 C.3          1 FAD449   0.0000
    37 C9         118.5700   145.6190    80.4730 C.ar         1 FAD449   0.0000
    38 C9A        117.9960   144.3690    80.1370 C.ar         1 FAD449   0.0000
    39 N10        116.9440   143.7340    80.9210 N.pl3        1 FAD449   0.0000
    40 C10        116.4200   142.5310    80.5400 C.2          1 FAD449   0.0000
    41 C1'        116.4700   144.4550    82.1290 C.3          1 FAD449   0.0000
    42 C2'        115.2540   145.3650    81.7760 C.3          1 FAD449   0.0000
    43 O2'        115.6370   146.2240    80.7250 O.3          1 FAD449   0.0000
    44 C3'        114.8780   146.1420    83.0210 C.3          1 FAD449   0.0000
    45 O3'        114.4760   145.2380    84.0440 O.3          1 FAD449   0.0000
    46 C4'        113.7370   147.0950    82.7090 C.3          1 FAD449   0.0000
    47 O4'        114.1230   148.0230    81.6610 O.3          1 FAD449   0.0000
    48 C5'        113.3930   147.8580    83.9650 C.3          1 FAD449   0.0000
    49 O5'        112.2370   148.8660    83.5910 O.3          1 FAD449   0.0000
    50 P          112.1840   150.2080    84.2640 P.3          1 FAD449   0.0000
    51 O1P        110.9060   150.8290    83.6320 O.co2        1 FAD449   0.0000
    52 O2P        112.1860   150.1520    85.6570 O.co2        1 FAD449  -1.0000
    53 O3P        113.3540   151.0100    83.8940 O.3          1 FAD449   0.0000
    54 H5B1       114.9766   153.8692    83.5420 H            1 FAD449   0.0000
    55 H5B2       113.4149   153.8362    84.0181 H            1 FAD449   0.0000
    56 H4B        112.9153   155.0338    81.8633 H            1 FAD449   0.0000
    57 H3B        115.5413   154.8636    81.4191 H            1 FAD449   0.0000
    58 H5         115.3545   156.2381    79.6687 H            1 FAD449   0.0000
    59 H2B        116.0726   156.2864    83.0441 H            1 FAD449   0.0000
    60 H7         115.7950   158.3292    81.2336 H            1 FAD449   0.0000
    61 H1B        113.8402   157.8853    82.1389 H            1 FAD449   0.0000
    62 H8A        115.9638   157.1908    85.1573 H            1 FAD449   0.0000
    63 H6A1       113.9084   162.4915    87.5886 H            1 FAD449   0.0000
    64 H6A2       114.9820   161.1520    87.8185 H            1 FAD449   0.0000
    65 H2A        111.8124   161.7850    83.6693 H            1 FAD449   0.0000
    66 H13        114.9535   139.1998    79.4923 H            1 FAD449   0.0000
    67 H14        119.7645   143.7463    77.3426 H            1 FAD449   0.0000
    68 H7M1       121.4041   146.9084    77.9341 H            1 FAD449   0.0000
    69 H7M2       121.8772   145.3961    77.5395 H            1 FAD449   0.0000
    70 H7M3       120.7377   146.1537    76.6484 H            1 FAD449   0.0000
    71 H8M1       119.7069   147.8414    80.8978 H            1 FAD449   0.0000
    72 H8M2       121.1333   147.4327    80.2158 H            1 FAD449   0.0000
    73 H8M3       119.9899   148.1874    79.3272 H            1 FAD449   0.0000
    74 H21        118.2613   146.1040    81.2912 H            1 FAD449   0.0000
    75 H1'1       117.2123   145.0212    82.4874 H            1 FAD449   0.0000
    76 H1'2       116.1935   143.7898    82.8226 H            1 FAD449   0.0000
    77 H2'        114.4823   144.7993    81.4853 H            1 FAD449   0.0000
    78 H25        116.3233   145.7700    80.1568 H            1 FAD449   0.0000
    79 H3'        115.6697   146.6659    83.3353 H            1 FAD449   0.0000
    80 H27        114.6944   145.6283    84.9384 H            1 FAD449   0.0000
    81 H4'        112.9394   146.5708    82.4105 H            1 FAD449   0.0000
    82 H29        113.6378   148.8883    81.7867 H            1 FAD449   0.0000
    83 H5'1       114.1937   148.3599    84.2921 H            1 FAD449   0.0000
    84 H5'2       113.0818   147.2271    84.6757 H            1 FAD449   0.0000
@<TRIPOS>BOND
     1    1    2      ar
     2    1    3      ar
     3    1    4       1
     4    1   53       1
     5    4    5       1
     6    5    6       1
     7    6    7       1
     8    6    8       1
     9    7   12       1
    10    8    9       1
    11    8   10       1
    12   10   11       1
    13   10   12       1
    14   12   13       1
    15   13   14       1
    16   13   22       1
    17   14   15       2
    18   15   16       1
    19   16   17      ar
    20   16   22      ar
    21   17   18       1
    22   17   19      ar
    23   19   20      ar
    24   20   21      ar
    25   21   22      ar
    26   23   24       1
    27   23   40       2
    28   24   25       2
    29   24   26       1
    30   26   27       1
    31   27   28       2
    32   27   29       1
    33   29   30       2
    34   29   40       1
    35   30   31       1
    36   31   32      ar
    37   31   38      ar
    38   32   33      ar
    39   33   34       1
    40   33   35      ar
    41   35   36       1
    42   35   37      ar
    43   37   38      ar
    44   38   39       1
    45   39   40       1
    46   39   41       1
    47   41   42       1
    48   42   43       1
    49   42   44       1
    50   44   45       1
    51   44   46       1
    52   46   47       1
    53   46   48       1
    54   48   49       1
    55   49   50       1
    56   50   51      ar
    57   50   52      ar
    58   50   53       1
    59   48   84       1
    60    5   54       1
    61    5   55       1
    62    6   56       1
    63    8   57       1
    64    9   58       1
    65   10   59       1
    66   11   60       1
    67   12   61       1
    68   14   62       1
    69   18   63       1
    70   18   64       1
    71   20   65       1
    72   26   66       1
    73   32   67       1
    74   34   68       1
    75   34   69       1
    76   34   70       1
    77   36   71       1
    78   36   72       1
    79   36   73       1
    80   37   74       1
    81   41   75       1
    82   41   76       1
    83   42   77       1
    84   43   78       1
    85   44   79       1
    86   45   80       1
    87   46   81       1
    88   47   82       1
    89   48   83       1
@<TRIPOS>SUBSTRUCTURE
     1 FAD449      1 GROUP             4 P     FAD     0 **** FAD P 449
