@<TRIPOS>MOLECULE
3kkj_FAD_1_ligand
   84    89     1     0     0
SMALL
NO_CHARGES


@<TRIPOS>ATOM
     1 PA          40.0900    71.0600    41.5050 P.3          1 FAD401   0.0000
     2 O1A         40.4110    69.9180    42.3890 O.co2        1 FAD401   0.0000
     3 O2A         38.5850    70.9720    40.9480 O.co2        1 FAD401  -1.0000
     4 O5B         40.1880    72.4930    42.2310 O.3          1 FAD401   0.0000
     5 C5B         41.0140    72.6890    43.3800 C.3          1 FAD401   0.0000
     6 C4B         40.4340    73.7410    44.3310 C.3          1 FAD401   0.0000
     7 O4B         40.4220    75.1000    43.8660 O.3          1 FAD401   0.0000
     8 C3B         38.9840    73.4630    44.7310 C.3          1 FAD401   0.0000
     9 O3B         39.0050    72.6980    45.9390 O.3          1 FAD401   0.0000
    10 C2B         38.4160    74.8740    44.9330 C.3          1 FAD401   0.0000
    11 O2B         37.7690    75.0400    46.1970 O.3          1 FAD401   0.0000
    12 C1B         39.6830    75.7260    44.9260 C.3          1 FAD401   0.0000
    13 N9A         39.3810    77.1520    44.6630 N.pl3        1 FAD401   0.0000
    14 C8A         38.7870    77.6590    43.5850 C.2          1 FAD401   0.0000
    15 N7A         38.7940    78.9900    43.6500 N.2          1 FAD401   0.0000
    16 C5A         39.3910    79.3440    44.7840 C.ar         1 FAD401   0.0000
    17 C6A         39.7020    80.5550    45.3900 C.ar         1 FAD401   0.0000
    18 N6A         39.4180    81.7160    44.8050 N.pl3        1 FAD401   0.0000
    19 N1A         40.3240    80.5480    46.5780 N.ar         1 FAD401   0.0000
    20 C2A         40.6430    79.4130    47.1720 C.ar         1 FAD401   0.0000
    21 N3A         40.3710    78.2430    46.6210 N.ar         1 FAD401   0.0000
    22 C4A         39.7520    78.1720    45.4340 C.ar         1 FAD401   0.0000
    23 N1          38.6090    62.8610    35.8160 N.2          1 FAD401   0.0000
    24 C2          39.0320    61.5590    35.5200 C.2          1 FAD401   0.0000
    25 O2          40.2240    61.3320    35.3170 O.2          1 FAD401   0.0000
    26 N3          38.0930    60.5220    35.4560 N.pl3        1 FAD401   0.0000
    27 C4          36.7390    60.7920    35.6930 C.2          1 FAD401   0.0000
    28 O4          35.9170    59.8780    35.6790 O.2          1 FAD401   0.0000
    29 C4X         36.3260    62.0850    35.9950 C.2          1 FAD401   0.0000
    30 N5          34.9730    62.3440    36.2540 N.2          1 FAD401   0.0000
    31 C5X         34.5540    63.6340    36.5970 C.ar         1 FAD401   0.0000
    32 C6          33.2440    63.8520    37.0110 C.ar         1 FAD401   0.0000
    33 C7          32.8730    65.0890    37.5260 C.ar         1 FAD401   0.0000
    34 C7M         31.4390    65.3140    38.0120 C.3          1 FAD401   0.0000
    35 C8          33.8120    66.1120    37.6180 C.ar         1 FAD401   0.0000
    36 C8M         33.4420    67.4560    38.2490 C.3          1 FAD401   0.0000
    37 C9          35.1150    65.8990    37.1830 C.ar         1 FAD401   0.0000
    38 C9A         35.4890    64.6610    36.6720 C.ar         1 FAD401   0.0000
    39 N10         36.8250    64.4220    36.3280 N.pl3        1 FAD401   0.0000
    40 C10         37.2540    63.1180    36.0530 C.2          1 FAD401   0.0000
    41 C1'         37.7970    65.5380    36.3530 C.3          1 FAD401   0.0000
    42 C2'         38.7310    65.5470    37.5650 C.3          1 FAD401   0.0000
    43 O2'         37.9380    65.4910    38.7540 O.3          1 FAD401   0.0000
    44 C3'         39.5420    66.8450    37.5220 C.3          1 FAD401   0.0000
    45 O3'         40.2780    66.9200    36.2980 O.3          1 FAD401   0.0000
    46 C4'         40.5400    67.0100    38.6680 C.3          1 FAD401   0.0000
    47 O4'         39.9640    66.6810    39.9330 O.3          1 FAD401   0.0000
    48 C5'         41.0170    68.4640    38.6680 C.3          1 FAD401   0.0000
    49 O5'         41.8180    68.7690    39.8100 O.3          1 FAD401   0.0000
    50 P           42.3480    70.2770    39.9700 P.3          1 FAD401   0.0000
    51 O1P         43.3840    70.3660    41.0230 O.co2        1 FAD401   0.0000
    52 O2P         42.8820    70.7460    38.5270 O.co2        1 FAD401  -1.0000
    53 O3P         41.0380    71.1860    40.2080 O.3          1 FAD401   0.0000
    54 H5B1        41.9192    72.9895    43.0794 H            1 FAD401   0.0000
    55 H5B2        41.0966    71.8213    43.8701 H            1 FAD401   0.0000
    56 H4B         40.9817    73.7187    45.1674 H            1 FAD401   0.0000
    57 H3B         38.4961    72.9781    44.0052 H            1 FAD401   0.0000
    58 H5          39.4695    73.2187    46.6553 H            1 FAD401   0.0000
    59 H2B         37.8075    75.1279    44.1812 H            1 FAD401   0.0000
    60 H7          38.4248    74.8685    46.9322 H            1 FAD401   0.0000
    61 H1B         40.1710    75.6290    45.7934 H            1 FAD401   0.0000
    62 H8A         38.3945    77.1217    42.8385 H            1 FAD401   0.0000
    63 H6A1        39.6512    82.5754    45.2600 H            1 FAD401   0.0000
    64 H6A2        38.9714    81.7291    43.9104 H            1 FAD401   0.0000
    65 H2A         41.1015    79.4392    48.0603 H            1 FAD401   0.0000
    66 H13         38.3883    59.5910    35.2416 H            1 FAD401   0.0000
    67 H14         32.5685    63.1183    36.9381 H            1 FAD401   0.0000
    68 H7M1        31.3442    66.2509    38.3486 H            1 FAD401   0.0000
    69 H7M2        30.8032    65.1661    37.2544 H            1 FAD401   0.0000
    70 H7M3        31.2327    64.6720    38.7505 H            1 FAD401   0.0000
    71 H8M1        34.2359    68.0637    38.2285 H            1 FAD401   0.0000
    72 H8M2        32.6916    67.8706    37.7343 H            1 FAD401   0.0000
    73 H8M3        33.1567    67.3121    39.1966 H            1 FAD401   0.0000
    74 H21         35.7857    66.6387    37.2377 H            1 FAD401   0.0000
    75 H1'1        37.2849    66.3969    36.3482 H            1 FAD401   0.0000
    76 H1'2        38.3586    65.4802    35.5276 H            1 FAD401   0.0000
    77 H2'         39.3459    64.7592    37.5277 H            1 FAD401   0.0000
    78 H25         37.0565    65.9330    38.5879 H            1 FAD401   0.0000
    79 H3'         38.9033    67.6139    37.5504 H            1 FAD401   0.0000
    80 H27         39.9983    67.7348    35.7902 H            1 FAD401   0.0000
    81 H4'         41.3242    66.4117    38.5035 H            1 FAD401   0.0000
    82 H29         39.2573    65.9849    39.8065 H            1 FAD401   0.0000
    83 H5'1        40.2178    69.0651    38.6654 H            1 FAD401   0.0000
    84 H5'2        41.5582    68.6254    37.8427 H            1 FAD401   0.0000
@<TRIPOS>BOND
     1    1    2      ar
     2    1    3      ar
     3    1    4       1
     4    1   53       1
     5    4    5       1
     6    5    6       1
     7    6    7       1
     8    6    8       1
     9    7   12       1
    10    8    9       1
    11    8   10       1
    12   10   11       1
    13   10   12       1
    14   12   13       1
    15   13   14       1
    16   13   22       1
    17   14   15       2
    18   15   16       1
    19   16   17      ar
    20   16   22      ar
    21   17   18       1
    22   17   19      ar
    23   19   20      ar
    24   20   21      ar
    25   21   22      ar
    26   23   24       1
    27   23   40       2
    28   24   25       2
    29   24   26       1
    30   26   27       1
    31   27   28       2
    32   27   29       1
    33   29   30       2
    34   29   40       1
    35   30   31       1
    36   31   32      ar
    37   31   38      ar
    38   32   33      ar
    39   33   34       1
    40   33   35      ar
    41   35   36       1
    42   35   37      ar
    43   37   38      ar
    44   38   39       1
    45   39   40       1
    46   39   41       1
    47   41   42       1
    48   42   43       1
    49   42   44       1
    50   44   45       1
    51   44   46       1
    52   46   47       1
    53   46   48       1
    54   48   49       1
    55   49   50       1
    56   50   51      ar
    57   50   52      ar
    58   50   53       1
    59   48   84       1
    60    5   54       1
    61    5   55       1
    62    6   56       1
    63    8   57       1
    64    9   58       1
    65   10   59       1
    66   11   60       1
    67   12   61       1
    68   14   62       1
    69   18   63       1
    70   18   64       1
    71   20   65       1
    72   26   66       1
    73   32   67       1
    74   34   68       1
    75   34   69       1
    76   34   70       1
    77   36   71       1
    78   36   72       1
    79   36   73       1
    80   37   74       1
    81   41   75       1
    82   41   76       1
    83   42   77       1
    84   43   78       1
    85   44   79       1
    86   45   80       1
    87   46   81       1
    88   47   82       1
    89   48   83       1
@<TRIPOS>SUBSTRUCTURE
     1 FAD401      1 GROUP             4 A     FAD     0 **** FAD A 401
