@<TRIPOS>MOLECULE
4kvx_ACO_1_ligand
   85    87     1     0     0
SMALL
NO_CHARGES


@<TRIPOS>ATOM
     1 N1A          8.6640    26.3360    30.6170 N.ar         1 ACO201   0.0000
     2 C2A          7.8300    26.3660    29.5300 C.ar         1 ACO201   0.0000
     3 N3A          8.1780    25.7200    28.3470 N.ar         1 ACO201   0.0000
     4 C4A          9.4360    25.2590    28.4040 C.ar         1 ACO201   0.0000
     5 C5A         10.3840    25.3940    29.4230 C.ar         1 ACO201   0.0000
     6 C6A          9.9740    26.0780    30.4900 C.ar         1 ACO201   0.0000
     7 N6A         10.8440    26.2430    31.6100 N.pl3        1 ACO201   0.0000
     8 N7A         11.5640    24.7460    29.1080 N.2          1 ACO201   0.0000
     9 C8A         11.3790    24.2100    27.9050 C.2          1 ACO201   0.0000
    10 N9A         10.1040    24.4820    27.4330 N.pl3        1 ACO201   0.0000
    11 C1B          9.5450    23.9900    26.1040 C.3          1 ACO201   0.0000
    12 C2B          8.8720    25.0500    25.0860 C.3          1 ACO201   0.0000
    13 O2B          7.5900    24.7540    24.4730 O.3          1 ACO201   0.0000
    14 C3B         10.1610    25.3350    24.1950 C.3          1 ACO201   0.0000
    15 O3B         10.1190    25.9610    22.8700 O.3          1 ACO201   0.0000
    16 P3B         10.4830    27.4690    22.7760 P.3          1 ACO201   0.0000
    17 O7A          9.7570    28.2350    23.8500 O.co2        1 ACO201   0.0000
    18 O8A         10.0690    27.9350    21.4160 O.co2        1 ACO201  -1.0000
    19 O9A         11.9740    27.6150    22.9720 O.co2        1 ACO201  -1.0000
    20 C4B         10.9690    23.9910    24.2840 C.3          1 ACO201   0.0000
    21 O4B         10.5610    23.1610    25.3750 O.3          1 ACO201   0.0000
    22 C5B         12.4270    24.3100    24.3830 C.3          1 ACO201   0.0000
    23 O5B         13.0610    23.1580    23.9770 O.3          1 ACO201   0.0000
    24 P1A         14.4700    22.8150    24.5190 P.3          1 ACO201   0.0000
    25 O1A         15.3820    24.0350    24.5300 O.co2        1 ACO201   0.0000
    26 O2A         14.9640    21.7450    23.5290 O.co2        1 ACO201  -1.0000
    27 O3A         14.2510    22.1910    25.9580 O.3          1 ACO201   0.0000
    28 P2A         15.4020    22.0030    27.0140 P.3          1 ACO201   0.0000
    29 O4A         16.7720    21.7450    26.3440 O.co2        1 ACO201   0.0000
    30 O5A         15.4780    23.2410    27.9150 O.co2        1 ACO201  -1.0000
    31 O6A         14.9980    20.7260    27.8590 O.3          1 ACO201   0.0000
    32 CBP         13.5820    19.4390    29.2740 C.3          1 ACO201   0.0000
    33 CCP         13.6730    20.5370    28.2250 C.3          1 ACO201   0.0000
    34 CDP         12.1100    19.1960    29.5920 C.3          1 ACO201   0.0000
    35 CEP         14.2170    18.1420    28.8590 C.3          1 ACO201   0.0000
    36 CAP         14.3060    19.9600    30.5970 C.3          1 ACO201   0.0000
    37 OAP         13.5450    21.0480    31.2270 O.3          1 ACO201   0.0000
    38 C9P         14.6730    18.8380    31.6590 C.2          1 ACO201   0.0000
    39 O9P         15.7690    18.3060    31.6170 O.2          1 ACO201   0.0000
    40 N8P         13.7980    18.6890    32.8020 N.am         1 ACO201   0.0000
    41 C7P         14.0830    17.7010    33.8360 C.3          1 ACO201   0.0000
    42 C6P         13.9610    16.3590    33.1830 C.3          1 ACO201   0.0000
    43 C5P         12.5470    16.0510    32.7590 C.2          1 ACO201   0.0000
    44 O5P         11.6250    16.7010    33.2400 O.2          1 ACO201   0.0000
    45 N4P         12.3160    15.2780    31.5580 N.am         1 ACO201   0.0000
    46 C3P         10.9440    15.0010    31.1550 C.3          1 ACO201   0.0000
    47 C2P         10.4260    13.7950    31.9400 C.3          1 ACO201   0.0000
    48 S1P          9.0860    13.0320    31.0170 S.3          1 ACO201   0.0000
    49 C            9.8570    11.8330    29.9470 C.2          1 ACO201   0.0000
    50 O           11.0700    11.7820    29.9670 O.2          1 ACO201   0.0000
    51 CH3          9.0440    11.0890    28.9070 C.3          1 ACO201   0.0000
    52 H2A          6.9612    26.8578    29.5873 H            1 ACO201   0.0000
    53 H6A1        11.8210    26.0510    31.5168 H            1 ACO201   0.0000
    54 H6A2        10.4764    26.5506    32.4876 H            1 ACO201   0.0000
    55 H8A         12.0671    23.6817    27.4076 H            1 ACO201   0.0000
    56 H1B          8.8114    23.3549    26.3458 H            1 ACO201   0.0000
    57 H2B          8.7273    25.8817    25.6220 H            1 ACO201   0.0000
    58 H7           7.0987    25.6075    24.2990 H            1 ACO201   0.0000
    59 H3B         10.6972    25.9745    24.7459 H            1 ACO201   0.0000
    60 H4B         10.8199    23.4831    23.4356 H            1 ACO201   0.0000
    61 H5B1        12.6758    24.5372    25.3245 H            1 ACO201   0.0000
    62 H5B2        12.6632    25.0738    23.7823 H            1 ACO201   0.0000
    63 HCP1        13.1404    20.2732    27.4208 H            1 ACO201   0.0000
    64 HCP2        13.3078    21.3881    28.6022 H            1 ACO201   0.0000
    65 HDP1        12.0324    18.4757    30.2813 H            1 ACO201   0.0000
    66 HDP2        11.7013    20.0385    29.9429 H            1 ACO201   0.0000
    67 HDP3        11.6314    18.9145    28.7603 H            1 ACO201   0.0000
    68 HEP1        14.1184    17.4721    29.5949 H            1 ACO201   0.0000
    69 HEP2        13.7672    17.7996    28.0341 H            1 ACO201   0.0000
    70 HEP3        15.1879    18.2911    28.6718 H            1 ACO201   0.0000
    71 HAP         15.1736    20.3601    30.3018 H            1 ACO201   0.0000
    72 H21         13.8517    21.9258    30.8591 H            1 ACO201   0.0000
    73 H8P         12.9885    19.2704    32.8837 H            1 ACO201   0.0000
    74 H7P1        13.4242    17.7830    34.5838 H            1 ACO201   0.0000
    75 H7P2        15.0087    17.8297    34.1917 H            1 ACO201   0.0000
    76 H6P1        14.2617    15.6586    33.8303 H            1 ACO201   0.0000
    77 H6P2        14.5496    16.3407    32.3748 H            1 ACO201   0.0000
    78 H4P         13.0843    14.9400    31.0145 H            1 ACO201   0.0000
    79 H3P1        10.9166    14.8001    30.1758 H            1 ACO201   0.0000
    80 H3P2        10.3710    15.7975    31.3480 H            1 ACO201   0.0000
    81 H2P1        10.0905    14.0947    32.8331 H            1 ACO201   0.0000
    82 H2P2        11.1656    13.1339    32.0665 H            1 ACO201   0.0000
    83 HH31         9.6394    10.4625    28.4040 H            1 ACO201   0.0000
    84 HH32         8.3195    10.5691    29.3596 H            1 ACO201   0.0000
    85 HH33         8.6365    11.7444    28.2710 H            1 ACO201   0.0000
@<TRIPOS>BOND
     1    1    2      ar
     2    1    6      ar
     3    2    3      ar
     4    3    4      ar
     5    4    5      ar
     6    4   10       1
     7    5    6      ar
     8    5    8       1
     9    6    7       1
    10    8    9       2
    11    9   10       1
    12   10   11       1
    13   11   12       1
    14   11   21       1
    15   12   13       1
    16   12   14       1
    17   14   15       1
    18   14   20       1
    19   15   16       1
    20   16   17      ar
    21   16   18      ar
    22   16   19      ar
    23   20   21       1
    24   20   22       1
    25   22   23       1
    26   23   24       1
    27   24   25      ar
    28   24   26      ar
    29   24   27       1
    30   27   28       1
    31   28   29      ar
    32   28   30      ar
    33   28   31       1
    34   31   33       1
    35   32   33       1
    36   32   34       1
    37   32   35       1
    38   32   36       1
    39   36   37       1
    40   36   38       1
    41   38   39       2
    42   38   40      am
    43   40   41       1
    44   41   42       1
    45   42   43       1
    46   43   44       2
    47   43   45      am
    48   45   46       1
    49   46   47       1
    50   47   48       1
    51   48   49       1
    52   49   50       2
    53   49   51       1
    54    2   52       1
    55    7   53       1
    56    7   54       1
    57    9   55       1
    58   11   56       1
    59   12   57       1
    60   13   58       1
    61   14   59       1
    62   51   85       1
    63   51   84       1
    64   20   60       1
    65   22   61       1
    66   22   62       1
    67   51   83       1
    68   47   82       1
    69   33   63       1
    70   33   64       1
    71   34   65       1
    72   34   66       1
    73   34   67       1
    74   35   68       1
    75   35   69       1
    76   35   70       1
    77   36   71       1
    78   37   72       1
    79   40   73       1
    80   41   74       1
    81   41   75       1
    82   42   76       1
    83   42   77       1
    84   45   78       1
    85   46   79       1
    86   46   80       1
    87   47   81       1
@<TRIPOS>SUBSTRUCTURE
     1 ACO201      1 GROUP             4 A     ACO     0 **** ACO A 201
