@<TRIPOS>MOLECULE
./coach420/1og1/ligand.pdb
 43 47 0 0 0
SMALL
GASTEIGER

@<TRIPOS>ATOM
      1  PA        55.8170   27.7850   20.5050 P.3   1227  TAD1227     0.3820
      2  O1A       55.4280   29.3280   20.2620 O.2   1227  TAD1227    -0.2548
      3  O2A       56.9920   27.4150   21.3220 O.3   1227  TAD1227    -0.1392
      4  O5B       56.3940   27.5380   19.0190 O.3   1227  TAD1227    -0.2896
      5  C5B       57.7370   27.0760   18.8520 C.3   1227  TAD1227     0.1836
      6  C4B       58.4270   27.8160   17.7030 C.3   1227  TAD1227     0.1802
      7  O4B       58.2650   29.2440   17.7840 O.3   1227  TAD1227    -0.3306
      8  C3B       59.9360   27.5660   17.7340 C.3   1227  TAD1227     0.2161
      9  O3B       60.2380   26.3910   16.9800 O.3   1227  TAD1227    -0.2175
     10  C2B       60.4010   28.7920   16.9530 C.3   1227  TAD1227     0.2337
     11  O2B       59.9840   28.6840   15.5880 O.3   1227  TAD1227    -0.2155
     12  C1B       59.5660   29.8510   17.6750 C.3   1227  TAD1227     0.2409
     13  N9A       60.0790   30.1040   19.0430 N.ar  1227  TAD1227    -0.2693
     14  C8A       59.6120   29.5640   20.1660 C.ar  1227  TAD1227     0.1816
     15  N7A       60.2870   30.0430   21.2090 N.ar  1227  TAD1227    -0.2193
     16  C5A       61.1950   30.8980   20.7510 C.ar  1227  TAD1227     0.1518
     17  C6A       62.1620   31.6770   21.3780 C.ar  1227  TAD1227     0.1919
     18  N6A       62.2970   31.6310   22.6990 N.pl3 1227  TAD1227    -0.1054
     19  N1A       63.0000   32.5040   20.6190 N.ar  1227  TAD1227    -0.2040
     20  C2A       62.8730   32.5520   19.2250 C.ar  1227  TAD1227     0.2016
     21  N3A       61.8980   31.7620   18.6030 N.ar  1227  TAD1227    -0.2048
     22  C4A       61.0630   30.9380   19.3690 C.ar  1227  TAD1227     0.1692
     23  C3        54.3770   26.7410   20.3960 C.3   1227  TAD1227     0.2353
     24  PN        54.3840   25.4890   21.6670 P.3   1227  TAD1227     0.3820
     25  O1N       54.6090   26.4980   22.9010 O.3   1227  TAD1227    -0.1392
     26  O2N       55.4530   24.5990   21.1680 O.2   1227  TAD1227    -0.2548
     27  O5D       52.8270   25.0660   21.6280 O.3   1227  TAD1227    -0.2896
     28  C5D       52.1580   24.7350   20.4090 C.3   1227  TAD1227     0.1835
     29  C4D       51.0970   23.6630   20.6670 C.3   1227  TAD1227     0.1785
     30  O4D       51.7410   22.5840   21.3630 O.3   1227  TAD1227    -0.3442
     31  C3D       49.9400   24.1380   21.5480 C.3   1227  TAD1227     0.2144
     32  O3D       48.6890   23.7180   20.9970 O.3   1227  TAD1227    -0.2176
     33  C2D       50.1900   23.4390   22.8830 C.3   1227  TAD1227     0.2177
     34  O2D       48.9260   23.1240   23.4740 O.3   1227  TAD1227    -0.2172
     35  C1D       50.8800   22.1520   22.4280 C.3   1227  TAD1227     0.1938
     36  C2N       51.7590   21.4730   23.4840 C.ar  1227  TAD1227     0.1181
     37  N3N       53.0870   21.3570   23.4330 N.ar  1227  TAD1227    -0.2355
     38  C4N       53.7290   20.6050   24.3380 C.ar  1227  TAD1227     0.1445
     39  C5N       52.9310   20.0330   25.2450 C.ar  1227  TAD1227     0.0605
     40  S1N       51.1970   20.5000   24.9180 S.2   1227  TAD1227    -0.0677
     41  C6N       55.2420   20.3740   24.2950 C.2   1227  TAD1227     0.3024
     42  O6N       55.7710   19.4260   24.8750 O.2   1227  TAD1227    -0.2650
     43  N6N       55.9150   21.2520   23.5560 N.am  1227  TAD1227    -0.0823
@<TRIPOS>BOND
     1     1     4    1
     2     1     2    2
     3     1    23    1
     4     1     3    1
     5     4     5    1
     6     5     6    1
     7     6     8    1
     8     6     7    1
     9     7    12    1
    10     8    10    1
    11     8     9    1
    12    10    11    1
    13    10    12    1
    14    12    13    1
    15    13    22   ar
    16    13    14   ar
    17    14    15   ar
    18    15    16   ar
    19    16    22   ar
    20    16    17   ar
    21    17    19   ar
    22    17    18    1
    23    19    20   ar
    24    20    21   ar
    25    21    22   ar
    26    23    24    1
    27    24    26    2
    28    24    27    1
    29    24    25    1
    30    27    28    1
    31    28    29    1
    32    29    30    1
    33    29    31    1
    34    30    35    1
    35    31    32    1
    36    31    33    1
    37    33    35    1
    38    33    34    1
    39    35    36    1
    40    36    37   ar
    41    36    40   ar
    42    37    38   ar
    43    38    41    1
    44    38    39   ar
    45    39    40   ar
    46    41    43   am
    47    41    42    2
