@<TRIPOS>MOLECULE
4fkk_BES_1_ligand
   46    46     1     0     0
SMALL
NO_CHARGES


@<TRIPOS>ATOM
     1 N2          30.9210    15.2510    60.5650 N.4          1 BES1024   1.0000
     2 C1          29.9310    15.7420    59.6260 C.3          1 BES1024   0.0000
     3 C6          30.3210    15.2290    58.2300 C.3          1 BES1024   0.0000
     4 C7          29.3350    14.2790    57.5690 C.ar         1 BES1024   0.0000
     5 C8          28.0420    14.6970    57.2070 C.ar         1 BES1024   0.0000
     6 C12         29.7170    12.9610    57.2880 C.ar         1 BES1024   0.0000
     7 C9          27.1380    13.8210    56.5880 C.ar         1 BES1024   0.0000
     8 C11         28.8110    12.0850    56.6730 C.ar         1 BES1024   0.0000
     9 C10         27.5220    12.5070    56.3220 C.ar         1 BES1024   0.0000
    10 C2          29.7730    17.2900    59.6770 C.3          1 BES1024   0.0000
    11 O2          30.3370    17.9450    60.8420 O.3          1 BES1024   0.0000
    12 C3          28.3050    17.6000    59.6350 C.2          1 BES1024   0.0000
    13 O3          27.6400    17.1160    60.5360 O.2          1 BES1024   0.0000
    14 N1          27.8080    18.3590    58.6330 N.am         1 BES1024   0.0000
    15 C4          26.3640    18.6740    58.5580 C.3          1 BES1024   0.0000
    16 C13         26.1730    20.1520    58.9060 C.3          1 BES1024   0.0000
    17 C14         25.6920    20.2700    60.3480 C.3          1 BES1024   0.0000
    18 C15         25.4860    21.7380    60.6840 C.3          1 BES1024   0.0000
    19 C16         24.4250    19.4570    60.6100 C.3          1 BES1024   0.0000
    20 C5          25.6560    18.3660    57.2530 C.2          1 BES1024   0.0000
    21 O1          25.5330    17.1590    56.9300 O.co2        1 BES1024   0.0000
    22 O4          25.1900    19.3090    56.5560 O.co2        1 BES1024  -1.0000
    23 H1          31.6662    15.9135    60.6405 H            1 BES1024   0.0000
    24 H2          30.4961    15.1237    61.4612 H            1 BES1024   0.0000
    25 H3          29.0500    15.3352    59.8677 H            1 BES1024   0.0000
    26 H4          31.1963    14.7525    58.3128 H            1 BES1024   0.0000
    27 H5          30.4289    16.0229    57.6316 H            1 BES1024   0.0000
    28 H6          27.7612    15.6382    57.3947 H            1 BES1024   0.0000
    29 H7          30.6354    12.6449    57.5259 H            1 BES1024   0.0000
    30 H8          26.2227    14.1372    56.3387 H            1 BES1024   0.0000
    31 H9          29.0895    11.1438    56.4819 H            1 BES1024   0.0000
    32 H10         26.8840    11.8727    55.8853 H            1 BES1024   0.0000
    33 H11         30.2003    17.6774    58.8601 H            1 BES1024   0.0000
    34 H12         30.6313    18.8684    60.5954 H            1 BES1024   0.0000
    35 H13         28.4260    18.7133    57.9312 H            1 BES1024   0.0000
    36 H14         25.9092    18.1422    59.2724 H            1 BES1024   0.0000
    37 H15         25.4935    20.5548    58.2928 H            1 BES1024   0.0000
    38 H16         27.0426    20.6348    58.8030 H            1 BES1024   0.0000
    39 H17         26.4135    19.9162    60.9432 H            1 BES1024   0.0000
    40 H18         25.1703    21.8225    61.6291 H            1 BES1024   0.0000
    41 H19         26.3504    22.2291    60.5761 H            1 BES1024   0.0000
    42 H20         24.8018    22.1282    60.0678 H            1 BES1024   0.0000
    43 H21         24.1504    19.5663    61.5653 H            1 BES1024   0.0000
    44 H22         23.6913    19.7815    60.0130 H            1 BES1024   0.0000
    45 H23         24.6041    18.4911    60.4231 H            1 BES1024   0.0000
    46 H24         31.2834    14.3772    60.2408 H            1 BES1024   0.0000
@<TRIPOS>BOND
     1    1    2       1
     2    2    3       1
     3    2   10       1
     4    3    4       1
     5    4    5      ar
     6    4    6      ar
     7    5    7      ar
     8    6    8      ar
     9    7    9      ar
    10    8    9      ar
    11   10   11       1
    12   10   12       1
    13   12   13       2
    14   12   14      am
    15   14   15       1
    16   15   16       1
    17   15   20       1
    18   16   17       1
    19   17   18       1
    20   17   19       1
    21   20   21      ar
    22   20   22      ar
    23    1   23       1
    24    1   24       1
    25    2   25       1
    26    3   26       1
    27    3   27       1
    28    5   28       1
    29    6   29       1
    30    7   30       1
    31    8   31       1
    32    9   32       1
    33   10   33       1
    34   11   34       1
    35   14   35       1
    36   15   36       1
    37   16   37       1
    38   16   38       1
    39   17   39       1
    40   18   40       1
    41   18   41       1
    42   18   42       1
    43   19   43       1
    44   19   44       1
    45   19   45       1
    46    1   46       1
@<TRIPOS>SUBSTRUCTURE
     1 BES1024     1 GROUP             4 A     BES     0 **** BES A1024
