@<TRIPOS>MOLECULE
1yqq_GUN_1_ligand
   16    17     1     0     0
SMALL
NO_CHARGES


@<TRIPOS>ATOM
     1 N9          44.7690    28.1090    -2.0840 N.2          1 GUN400   0.0000
     2 C8          44.9950    26.8510    -2.5250 C.2          1 GUN400   0.0000
     3 N7          44.5780    25.8970    -1.7370 N.pl3        1 GUN400   0.0000
     4 C5          44.0320    26.6060    -0.6710 C.2          1 GUN400   0.0000
     5 C6          43.3980    26.1450     0.5410 C.2          1 GUN400   0.0000
     6 O6          43.2030    24.9940     0.9270 O.2          1 GUN400   0.0000
     7 N1          42.9900    27.2290     1.3410 N.pl3        1 GUN400   0.0000
     8 C2          43.1440    28.5650     1.0450 C.2          1 GUN400   0.0000
     9 N2          42.6890    29.4700     1.9220 N.pl3        1 GUN400   0.0000
    10 N3          43.7280    28.9900    -0.0740 N.2          1 GUN400   0.0000
    11 C4          44.1450    27.9620    -0.8920 C.2          1 GUN400   0.0000
    12 H1          45.4505    26.6639    -3.3954 H            1 GUN400   0.0000
    13 H2          42.5450    27.0073     2.2087 H            1 GUN400   0.0000
    14 H3          42.7888    30.4463     1.7302 H            1 GUN400   0.0000
    15 H4          42.2496    29.1691     2.7684 H            1 GUN400   0.0000
    16 H5          44.6362    24.9072    -1.8666 H            1 GUN400   0.0000
@<TRIPOS>BOND
     1    1    2       2
     2    1   11       1
     3    2    3       1
     4    3    4       1
     5    4    5       1
     6    4   11       2
     7    5    6       2
     8    5    7       1
     9    7    8       1
    10    8    9       1
    11    8   10       2
    12   10   11       1
    13    9   15       1
    14    2   12       1
    15    7   13       1
    16    9   14       1
    17    3   16       1
@<TRIPOS>SUBSTRUCTURE
     1 GUN400      1 GROUP             4 A     GUN     0 **** GUN A 400
