@<TRIPOS>MOLECULE
2ilt_NN1_1_ligand
   56    59     1     0     0
SMALL
NO_CHARGES


@<TRIPOS>ATOM
     1 C4          66.4060    99.9950    46.3490 C.ar         1 NN1902   0.0000
     2 C5          60.9580   107.4350    45.9520 C.3          1 NN1902   0.0000
     3 C6          67.1870    98.8550    46.3660 C.ar         1 NN1902   0.0000
     4 C7          66.9800   101.2290    46.5930 C.ar         1 NN1902   0.0000
     5 C8          68.3230   101.3260    46.8720 C.ar         1 NN1902   0.0000
     6 C10         69.0960   100.1850    46.8960 C.ar         1 NN1902   0.0000
     7 C15         63.5370   103.5220    45.9560 C.3          1 NN1902   0.0000
     8 C17         65.6280   104.8780    46.2710 C.3          1 NN1902   0.0000
     9 C20         63.5550   103.8840    44.4820 C.3          1 NN1902   0.0000
    10 C21         62.7350   105.1490    44.3110 C.3          1 NN1902   0.0000
    11 C22         63.3430   106.2860    45.1230 C.3          1 NN1902   0.0000
    12 C24         63.4090   105.9020    46.6000 C.3          1 NN1902   0.0000
    13 C1          63.0250    99.0770    46.9960 C.3          1 NN1902   0.0000
    14 C2          64.1660   100.0420    47.1980 C.3          1 NN1902   0.0000
    15 C3          64.7830    99.7690    48.5550 C.3          1 NN1902   0.0000
    16 O3          65.0430    99.8920    46.0600 O.3          1 NN1902   0.0000
    17 C14         63.5860   101.4340    47.1950 C.2          1 NN1902   0.0000
    18 O1          62.7550   101.8220    48.0080 O.2          1 NN1902   0.0000
    19 N4          64.0890   102.2160    46.1940 N.am         1 NN1902   0.0000
    20 C16         64.2130   104.6220    46.7660 C.3          1 NN1902   0.0000
    21 C18         65.5960   105.2730    44.8020 C.3          1 NN1902   0.0000
    22 C19         64.9720   104.1450    43.9970 C.3          1 NN1902   0.0000
    23 C23         64.7590   106.5340    44.6280 C.3          1 NN1902   0.0000
    24 S1          62.3470   107.7450    44.8950 S.o2         1 NN1902   0.0000
    25 O2          63.0660   108.8890    45.4160 O.2          1 NN1902   0.0000
    26 O4          61.8180   107.7450    43.5440 O.2          1 NN1902   0.0000
    27 C9          68.5340    98.9510    46.6440 C.ar         1 NN1902   0.0000
    28 CL1         66.5080    97.2930    46.0600 Cl           1 NN1902   0.0000
    29 F1          70.4180   100.2710    47.1680 F            1 NN1902   0.0000
    30 H1          60.3220   108.2050    45.9012 H            1 NN1902   0.0000
    31 H2          60.4943   106.5997    45.6567 H            1 NN1902   0.0000
    32 H3          61.2741   107.3254    46.8944 H            1 NN1902   0.0000
    33 H4          66.4161   102.0544    46.5665 H            1 NN1902   0.0000
    34 H5          68.7359   102.2180    47.0562 H            1 NN1902   0.0000
    35 H6          62.5788   103.4931    46.2406 H            1 NN1902   0.0000
    36 H7          66.1732   104.0468    46.3796 H            1 NN1902   0.0000
    37 H8          66.0379   105.6176    46.8049 H            1 NN1902   0.0000
    38 H9          63.1472   103.1433    43.9481 H            1 NN1902   0.0000
    39 H10         61.8006   104.9817    44.6256 H            1 NN1902   0.0000
    40 H11         62.7205   105.4048    43.3444 H            1 NN1902   0.0000
    41 H12         62.4822   105.7589    46.9472 H            1 NN1902   0.0000
    42 H13         63.8478   106.6384    47.1149 H            1 NN1902   0.0000
    43 H14         62.6035    99.2411    46.1041 H            1 NN1902   0.0000
    44 H15         63.3707    98.1394    47.0338 H            1 NN1902   0.0000
    45 H16         62.3441    99.2105    47.7161 H            1 NN1902   0.0000
    46 H17         65.5434   100.4001    48.7085 H            1 NN1902   0.0000
    47 H18         64.0931    99.8989    49.2671 H            1 NN1902   0.0000
    48 H19         65.1197    98.8279    48.5848 H            1 NN1902   0.0000
    49 H20         64.8410   101.8800    45.6269 H            1 NN1902   0.0000
    50 H21         64.2364   104.3625    47.7315 H            1 NN1902   0.0000
    51 H22         66.5274   105.4408    44.4790 H            1 NN1902   0.0000
    52 H23         64.9496   104.4006    43.0305 H            1 NN1902   0.0000
    53 H24         65.5189   103.3155    44.1098 H            1 NN1902   0.0000
    54 H25         65.1686   107.2793    45.1540 H            1 NN1902   0.0000
    55 H26         64.7331   106.7841    43.6601 H            1 NN1902   0.0000
    56 H27         69.1019    98.1281    46.6629 H            1 NN1902   0.0000
@<TRIPOS>BOND
     1    1    3      ar
     2    1    4      ar
     3    1   16       1
     4    2   24       1
     5    3   27      ar
     6    3   28       1
     7    4    5      ar
     8    5    6      ar
     9    6   27      ar
    10    6   29       1
    11    7    9       1
    12    7   19       1
    13    7   20       1
    14    8   20       1
    15    8   21       1
    16    9   10       1
    17    9   22       1
    18   10   11       1
    19   11   12       1
    20   11   23       1
    21   11   24       1
    22   12   20       1
    23   13   14       1
    24   14   15       1
    25   14   16       1
    26   14   17       1
    27   17   18       2
    28   17   19      am
    29   21   22       1
    30   21   23       1
    31   24   25       2
    32   24   26       2
    33    2   30       1
    34    2   31       1
    35    2   32       1
    36    4   33       1
    37    5   34       1
    38    7   35       1
    39    8   36       1
    40    8   37       1
    41    9   38       1
    42   10   39       1
    43   10   40       1
    44   12   41       1
    45   12   42       1
    46   13   43       1
    47   13   44       1
    48   13   45       1
    49   15   46       1
    50   15   47       1
    51   15   48       1
    52   19   49       1
    53   20   50       1
    54   21   51       1
    55   22   52       1
    56   22   53       1
    57   23   54       1
    58   23   55       1
    59   27   56       1
@<TRIPOS>SUBSTRUCTURE
     1 NN1902      1 GROUP             4 A     NN1     0 **** NN1 A 902
