@<TRIPOS>MOLECULE
2p7z_OHT_1_ligand
   59    61     1     0     0
SMALL
NO_CHARGES


@<TRIPOS>ATOM
     1 C10         48.2330   -29.3590   -99.9140 C.3          1 OHT201   0.0000
     2 C9          49.2520   -29.0890   -98.7940 C.3          1 OHT201   0.0000
     3 C8          49.0700   -29.9170   -97.4700 C.2          1 OHT201   0.0000
     4 C11         49.3450   -31.3290   -97.7080 C.ar         1 OHT201   0.0000
     5 C16         48.3500   -32.2940   -97.4170 C.ar         1 OHT201   0.0000
     6 C15         48.6170   -33.6620   -97.6420 C.ar         1 OHT201   0.0000
     7 C14         49.8820   -34.0730   -98.1570 C.ar         1 OHT201   0.0000
     8 C13         50.8800   -33.1210   -98.4480 C.ar         1 OHT201   0.0000
     9 C12         50.6150   -31.7490   -98.2250 C.ar         1 OHT201   0.0000
    10 C7          48.7180   -29.4030   -96.2040 C.2          1 OHT201   0.0000
    11 C1          48.2640   -27.9550   -95.9440 C.ar         1 OHT201   0.0000
    12 C2          49.0150   -27.0930   -95.0740 C.ar         1 OHT201   0.0000
    13 C3          48.5780   -25.7570   -94.8150 C.ar         1 OHT201   0.0000
    14 C4          47.3880   -25.2720   -95.4250 C.ar         1 OHT201   0.0000
    15 O4          46.9940   -23.9930   -95.1540 O.3          1 OHT201   0.0000
    16 C5          46.6330   -26.0950   -96.2870 C.ar         1 OHT201   0.0000
    17 C6          47.0660   -27.4280   -96.5420 C.ar         1 OHT201   0.0000
    18 C17         48.7560   -30.2940   -95.0090 C.ar         1 OHT201   0.0000
    19 C18         49.9430   -30.9790   -94.5770 C.ar         1 OHT201   0.0000
    20 C19         49.9380   -31.7390   -93.3700 C.ar         1 OHT201   0.0000
    21 C20         48.7470   -31.8250   -92.5830 C.ar         1 OHT201   0.0000
    22 O20         48.7750   -32.5580   -91.4860 O.3          1 OHT201   0.0000
    23 C23         48.5020   -32.0500   -90.1680 C.3          1 OHT201   0.0000
    24 C24         48.6480   -33.2450   -89.2000 C.3          1 OHT201   0.0000
    25 N24         49.9920   -33.4070   -88.5720 N.4          1 OHT201   1.0000
    26 C25         50.9960   -32.6270   -89.3330 C.3          1 OHT201   0.0000
    27 C26         50.0270   -32.9800   -87.1480 C.3          1 OHT201   0.0000
    28 C21         47.5780   -31.1490   -93.0330 C.ar         1 OHT201   0.0000
    29 C22         47.5760   -30.3890   -94.2270 C.ar         1 OHT201   0.0000
    30 H1          48.4436   -28.7813  -100.7026 H            1 OHT201   0.0000
    31 H2          48.2807   -30.3209  -100.1832 H            1 OHT201   0.0000
    32 H3          47.3122   -29.1504   -99.5843 H            1 OHT201   0.0000
    33 H4          49.1939   -28.1192   -98.5570 H            1 OHT201   0.0000
    34 H5          50.1624   -29.2898   -99.1559 H            1 OHT201   0.0000
    35 H6          47.4631   -32.0080   -97.0541 H            1 OHT201   0.0000
    36 H7          47.9161   -34.3458   -97.4394 H            1 OHT201   0.0000
    37 H8          50.0623   -35.0442   -98.3129 H            1 OHT201   0.0000
    38 H9          51.7662   -33.4122   -98.8083 H            1 OHT201   0.0000
    39 H10         51.3180   -31.0678   -98.4293 H            1 OHT201   0.0000
    40 H11         49.8525   -27.4314   -94.6450 H            1 OHT201   0.0000
    41 H12         49.1071   -25.1652   -94.2069 H            1 OHT201   0.0000
    42 H13         47.5382   -23.4217   -94.5396 H            1 OHT201   0.0000
    43 H14         45.8001   -25.7452   -96.7158 H            1 OHT201   0.0000
    44 H15         46.5257   -28.0101   -97.1497 H            1 OHT201   0.0000
    45 H16         50.7772   -30.9226   -95.1256 H            1 OHT201   0.0000
    46 H17         50.7678   -32.2120   -93.0739 H            1 OHT201   0.0000
    47 H18         47.5733   -31.6817   -90.1250 H            1 OHT201   0.0000
    48 H19         49.1566   -31.3319   -89.9319 H            1 OHT201   0.0000
    49 H20         48.4443   -34.0806   -89.7102 H            1 OHT201   0.0000
    50 H21         47.9778   -33.1304   -88.4667 H            1 OHT201   0.0000
    51 H22         51.8951   -32.7379   -88.9095 H            1 OHT201   0.0000
    52 H23         51.0290   -32.9568   -90.2765 H            1 OHT201   0.0000
    53 H24         50.7415   -31.6600   -89.3266 H            1 OHT201   0.0000
    54 H25         50.9488   -33.1113   -86.7832 H            1 OHT201   0.0000
    55 H26         49.7775   -32.0138   -87.0835 H            1 OHT201   0.0000
    56 H27         49.3783   -33.5278   -86.6197 H            1 OHT201   0.0000
    57 H28         46.7387   -31.2125   -92.4930 H            1 OHT201   0.0000
    58 H29         46.7431   -29.9191   -94.5194 H            1 OHT201   0.0000
    59 H30         50.2452   -34.3734   -88.6166 H            1 OHT201   0.0000
@<TRIPOS>BOND
     1    1    2       1
     2    2    3       1
     3    3    4       1
     4    3   10       2
     5    4    5      ar
     6    4    9      ar
     7    5    6      ar
     8    6    7      ar
     9    7    8      ar
    10    8    9      ar
    11   10   11       1
    12   10   18       1
    13   11   12      ar
    14   11   17      ar
    15   12   13      ar
    16   13   14      ar
    17   14   15       1
    18   14   16      ar
    19   16   17      ar
    20   18   19      ar
    21   18   29      ar
    22   19   20      ar
    23   20   21      ar
    24   21   22       1
    25   21   28      ar
    26   22   23       1
    27   23   24       1
    28   24   25       1
    29   25   26       1
    30   25   27       1
    31   28   29      ar
    32    1   30       1
    33    1   31       1
    34    1   32       1
    35    2   33       1
    36    2   34       1
    37    5   35       1
    38    6   36       1
    39    7   37       1
    40    8   38       1
    41    9   39       1
    42   12   40       1
    43   13   41       1
    44   15   42       1
    45   16   43       1
    46   17   44       1
    47   19   45       1
    48   20   46       1
    49   23   47       1
    50   23   48       1
    51   24   49       1
    52   24   50       1
    53   26   51       1
    54   26   52       1
    55   26   53       1
    56   27   54       1
    57   27   55       1
    58   27   56       1
    59   28   57       1
    60   29   58       1
    61   25   59       1
@<TRIPOS>SUBSTRUCTURE
     1 OHT201      1 GROUP             4 A     OHT     0 **** OHT A 201
