@<TRIPOS>MOLECULE
4jln_18V_1_ligand
   54    56     1     0     0
SMALL
NO_CHARGES


@<TRIPOS>ATOM
     1 FAE        -36.8990     8.1830     0.2640 F            1 18V301   0.0000
     2 CAK        -36.3200     7.5720    -0.9430 C.3          1 18V301   0.0000
     3 CAL        -35.4290     8.5850    -1.6630 C.3          1 18V301   0.0000
     4 OAS        -36.3010     9.6010    -2.1510 O.3          1 18V301   0.0000
     5 CBA        -35.8010    10.6330    -2.8840 C.ar         1 18V301   0.0000
     6 CAI        -34.4360    10.9360    -3.0490 C.ar         1 18V301   0.0000
     7 CAZ        -36.7860    11.4090    -3.4790 C.ar         1 18V301   0.0000
     8 OAR        -38.0750    11.0070    -3.2350 O.3          1 18V301   0.0000
     9 CAB        -39.0660    11.2220    -4.2630 C.3          1 18V301   0.0000
    10 CAG        -36.4370    12.5190    -4.2460 C.ar         1 18V301   0.0000
    11 CAF        -35.0830    12.8180    -4.4150 C.ar         1 18V301   0.0000
    12 CAX        -34.0740    12.0340    -3.8350 C.ar         1 18V301   0.0000
    13 CBD        -32.7890    12.3860    -4.0070 C.2          1 18V301   0.0000
    14 NAQ        -31.7940    12.0650    -3.1870 N.2          1 18V301   0.0000
    15 SAU        -32.1670    13.3220    -5.2090 S.3          1 18V301   0.0000
    16 CBC        -30.6660    13.3100    -4.6920 C.2          1 18V301   0.0000
    17 CAM        -29.4860    14.0130    -5.3720 C.3          1 18V301   0.0000
    18 CAJ        -29.7520    15.5220    -5.4510 C.3          1 18V301   0.0000
    19 CAA        -28.9060    16.2520    -4.4020 C.3          1 18V301   0.0000
    20 CBB        -30.6200    12.5880    -3.5710 C.2          1 18V301   0.0000
    21 CAN        -29.3470    12.3250    -2.7830 C.3          1 18V301   0.0000
    22 SAT        -28.6010    10.7820    -3.3820 S.3          1 18V301   0.0000
    23 C2         -26.9200    11.1960    -3.6660 C.ar         1 18V301   0.0000
    24 N3         -26.5340    12.4780    -3.7210 N.ar         1 18V301   0.0000
    25 N1         -26.0240    10.2070    -3.8390 N.ar         1 18V301   0.0000
    26 C6         -24.7120    10.4580    -4.0590 C.ar         1 18V301   0.0000
    27 NAC        -23.8390     9.4470    -4.2120 N.pl3        1 18V301   0.0000
    28 C5         -24.2790    11.7850    -4.1070 C.ar         1 18V301   0.0000
    29 C4         -25.2360    12.7880    -3.9270 C.ar         1 18V301   0.0000
    30 NAD        -24.8800    14.0650    -3.9780 N.pl3        1 18V301   0.0000
    31 HAK1       -37.0567     7.2844    -1.5550 H            1 18V301   0.0000
    32 HAK2       -35.7735     6.7762    -0.6822 H            1 18V301   0.0000
    33 HAL1       -34.9479     8.1464    -2.4221 H            1 18V301   0.0000
    34 HAL2       -34.7630     8.9751    -1.0272 H            1 18V301   0.0000
    35 HAI        -33.7352    10.3737    -2.6101 H            1 18V301   0.0000
    36 HAB1       -39.9522    10.8822    -3.9480 H            1 18V301   0.0000
    37 HAB2       -39.1350    12.1999    -4.4602 H            1 18V301   0.0000
    38 HAB3       -38.7972    10.7328    -5.0927 H            1 18V301   0.0000
    39 HAG        -37.1418    13.0900    -4.6670 H            1 18V301   0.0000
    40 HAF        -34.8256    13.6128    -4.9646 H            1 18V301   0.0000
    41 HAM1       -29.3702    13.6479    -6.2958 H            1 18V301   0.0000
    42 HAM2       -28.6534    13.8504    -4.8425 H            1 18V301   0.0000
    43 HAJ1       -30.7210    15.6981    -5.2776 H            1 18V301   0.0000
    44 HAJ2       -29.5107    15.8547    -6.3626 H            1 18V301   0.0000
    45 HAA1       -29.0822    17.2348    -4.4568 H            1 18V301   0.0000
    46 HAA2       -29.1470    15.9205    -3.4899 H            1 18V301   0.0000
    47 HAA3       -27.9367    16.0770    -4.5749 H            1 18V301   0.0000
    48 HAN1       -29.5647    12.2384    -1.8108 H            1 18V301   0.0000
    49 HAN2       -28.7069    13.0818    -2.9151 H            1 18V301   0.0000
    50 HAC1       -22.8717     9.6419    -4.3741 H            1 18V301   0.0000
    51 HAC2       -24.1570     8.5001    -4.1636 H            1 18V301   0.0000
    52 H22        -23.3175    12.0099    -4.2647 H            1 18V301   0.0000
    53 HAD1       -23.9228    14.3115    -4.1298 H            1 18V301   0.0000
    54 HAD2       -25.5688    14.7810    -3.8646 H            1 18V301   0.0000
@<TRIPOS>BOND
     1    1    2       1
     2    2    3       1
     3    3    4       1
     4    4    5       1
     5    5    6      ar
     6    5    7      ar
     7    6   12      ar
     8    7    8       1
     9    7   10      ar
    10    8    9       1
    11   10   11      ar
    12   11   12      ar
    13   12   13       1
    14   13   14       2
    15   13   15       1
    16   14   20       1
    17   15   16       1
    18   16   17       1
    19   16   20       2
    20   17   18       1
    21   18   19       1
    22   20   21       1
    23   21   22       1
    24   22   23       1
    25   23   24      ar
    26   23   25      ar
    27   24   29      ar
    28   25   26      ar
    29   26   27       1
    30   26   28      ar
    31   28   29      ar
    32   29   30       1
    33    2   31       1
    34    2   32       1
    35    3   33       1
    36    3   34       1
    37    6   35       1
    38    9   36       1
    39    9   37       1
    40    9   38       1
    41   10   39       1
    42   11   40       1
    43   17   41       1
    44   17   42       1
    45   18   43       1
    46   18   44       1
    47   19   45       1
    48   19   46       1
    49   19   47       1
    50   21   48       1
    51   21   49       1
    52   27   50       1
    53   27   51       1
    54   28   52       1
    55   30   53       1
    56   30   54       1
@<TRIPOS>SUBSTRUCTURE
     1 18V301      1 GROUP             4 A     18V     0 **** 18V A 301
