@<TRIPOS>MOLECULE
1efp_FAD_2_ligand
   84    89     1     0     0
SMALL
NO_CHARGES


@<TRIPOS>ATOM
     1 PA          29.0380     1.7510    97.7230 P.3          1 FAD399   0.0000
     2 O1A         29.7870     2.9910    97.9500 O.co2        1 FAD399   0.0000
     3 O2A         28.3690     1.1150    98.9070 O.co2        1 FAD399  -1.0000
     4 O5B         28.0600     2.0320    96.5570 O.3          1 FAD399   0.0000
     5 C5B         27.0420     1.1120    96.2650 C.3          1 FAD399   0.0000
     6 C4B         26.0980     1.7810    95.2670 C.3          1 FAD399   0.0000
     7 O4B         25.1160     0.8710    94.8250 O.3          1 FAD399   0.0000
     8 C3B         25.4100     3.0190    95.8930 C.3          1 FAD399   0.0000
     9 O3B         25.5480     4.1610    95.0380 O.3          1 FAD399   0.0000
    10 C2B         23.9550     2.5270    95.8300 C.3          1 FAD399   0.0000
    11 O2B         23.0720     3.6590    95.7170 O.3          1 FAD399   0.0000
    12 C1B         23.9670     1.6860    94.5490 C.3          1 FAD399   0.0000
    13 N9A         22.8700     0.7340    94.4430 N.pl3        1 FAD399   0.0000
    14 C8A         22.5380    -0.2400    95.3260 C.2          1 FAD399   0.0000
    15 N7A         21.6500    -1.0820    94.9200 N.2          1 FAD399   0.0000
    16 C5A         21.3680    -0.6060    93.6570 C.ar         1 FAD399   0.0000
    17 C6A         20.4990    -1.0690    92.7050 C.ar         1 FAD399   0.0000
    18 N6A         19.7790    -2.1470    92.9540 N.pl3        1 FAD399   0.0000
    19 N1A         20.4410    -0.3820    91.5510 N.ar         1 FAD399   0.0000
    20 C2A         21.2060     0.6960    91.3710 C.ar         1 FAD399   0.0000
    21 N3A         22.0750     1.2380    92.2000 N.ar         1 FAD399   0.0000
    22 C4A         22.0990     0.5120    93.3490 C.ar         1 FAD399   0.0000
    23 N1          37.6900     1.1680    95.7880 N.2          1 FAD399   0.0000
    24 C2          37.7710     0.9520    94.4900 C.2          1 FAD399   0.0000
    25 O2          36.7350     0.8060    93.8420 O.2          1 FAD399   0.0000
    26 N3          39.0310     0.9540    93.9610 N.pl3        1 FAD399   0.0000
    27 C4          40.2110     1.1630    94.6180 C.2          1 FAD399   0.0000
    28 O4          41.2520     1.0990    93.9770 O.2          1 FAD399   0.0000
    29 C4X         40.0970     1.4110    95.9950 C.2          1 FAD399   0.0000
    30 N5          41.2600     1.6740    96.6310 N.2          1 FAD399   0.0000
    31 C5X         41.0780     1.9580    97.9480 C.ar         1 FAD399   0.0000
    32 C6          42.2540     2.3260    98.6460 C.ar         1 FAD399   0.0000
    33 C7          42.2540     2.6850    99.9510 C.ar         1 FAD399   0.0000
    34 C7M         43.5380     3.1630   100.6020 C.3          1 FAD399   0.0000
    35 C8          41.0170     2.6720   100.6550 C.ar         1 FAD399   0.0000
    36 C8M         40.9690     2.9600   102.1320 C.3          1 FAD399   0.0000
    37 C9          39.8650     2.3330   100.0140 C.ar         1 FAD399   0.0000
    38 C9A         39.8700     1.9780    98.6600 C.ar         1 FAD399   0.0000
    39 N10         38.7030     1.6860    97.9350 N.pl3        1 FAD399   0.0000
    40 C10         38.8200     1.3930    96.5230 C.2          1 FAD399   0.0000
    41 C1'         37.3780     1.6810    98.5460 C.3          1 FAD399   0.0000
    42 C2'         36.5960     2.9540    98.1960 C.3          1 FAD399   0.0000
    43 O2'         36.8970     4.0900    99.0040 O.3          1 FAD399   0.0000
    44 C3'         35.0890     2.7250    98.3300 C.3          1 FAD399   0.0000
    45 O3'         34.8960     2.2370    99.6400 O.3          1 FAD399   0.0000
    46 C4'         34.5420     1.7010    97.3180 C.3          1 FAD399   0.0000
    47 O4'         34.8920     2.0300    95.9720 O.3          1 FAD399   0.0000
    48 C5'         33.0200     1.6390    97.3930 C.3          1 FAD399   0.0000
    49 O5'         32.5050     0.6150    96.5710 O.3          1 FAD399   0.0000
    50 P           31.0820     0.7360    95.9070 P.3          1 FAD399   0.0000
    51 O1P         31.0030     2.0610    95.2480 O.co2        1 FAD399   0.0000
    52 O2P         30.9920    -0.5330    95.1590 O.co2        1 FAD399  -1.0000
    53 O3P         29.9490     0.6410    97.0370 O.3          1 FAD399   0.0000
    54 H5B1        26.5453     0.8748    97.0999 H            1 FAD399   0.0000
    55 H5B2        27.4337     0.2841    95.8635 H            1 FAD399   0.0000
    56 H4B         26.6321     2.0805    94.4764 H            1 FAD399   0.0000
    57 H3B         25.7160     3.1983    96.8280 H            1 FAD399   0.0000
    58 H5          24.7601     4.7649    95.1586 H            1 FAD399   0.0000
    59 H2B         23.7270     1.9684    96.6275 H            1 FAD399   0.0000
    60 H7          22.9249     3.8719    94.7511 H            1 FAD399   0.0000
    61 H1B         24.0770     2.2410    93.7244 H            1 FAD399   0.0000
    62 H8A         22.9547    -0.3013    96.2330 H            1 FAD399   0.0000
    63 H6A1        19.1418    -2.4927    92.2652 H            1 FAD399   0.0000
    64 H6A2        19.8708    -2.6179    93.8314 H            1 FAD399   0.0000
    65 H2A         21.1065     1.1545    90.4879 H            1 FAD399   0.0000
    66 H13         39.0974     0.7824    92.9781 H            1 FAD399   0.0000
    67 H14         43.1237     2.3204    98.1524 H            1 FAD399   0.0000
    68 H7M1        43.3626     3.3860   101.5609 H            1 FAD399   0.0000
    69 H7M2        44.2278     2.4409   100.5484 H            1 FAD399   0.0000
    70 H7M3        43.8701     3.9772   100.1258 H            1 FAD399   0.0000
    71 H8M1        40.0229     2.9065   102.4515 H            1 FAD399   0.0000
    72 H8M2        41.5245     2.2874   102.6210 H            1 FAD399   0.0000
    73 H8M3        41.3277     3.8774   102.3046 H            1 FAD399   0.0000
    74 H21         39.0015     2.3376   100.5183 H            1 FAD399   0.0000
    75 H1'1        37.4779     1.6231    99.5393 H            1 FAD399   0.0000
    76 H1'2        36.8700     0.8857    98.2152 H            1 FAD399   0.0000
    77 H2'         36.7921     3.1882    97.2438 H            1 FAD399   0.0000
    78 H25         37.6458     4.6060    98.5880 H            1 FAD399   0.0000
    79 H3'         34.6067     3.5943    98.2215 H            1 FAD399   0.0000
    80 H27         33.9937     2.5148    99.9696 H            1 FAD399   0.0000
    81 H4'         34.9137     0.7990    97.5376 H            1 FAD399   0.0000
    82 H29         35.8877     2.0527    95.8826 H            1 FAD399   0.0000
    83 H5'1        32.6436     2.5160    97.0944 H            1 FAD399   0.0000
    84 H5'2        32.7478     1.4643    98.3393 H            1 FAD399   0.0000
@<TRIPOS>BOND
     1    1    2      ar
     2    1    3      ar
     3    1    4       1
     4    1   53       1
     5    4    5       1
     6    5    6       1
     7    6    7       1
     8    6    8       1
     9    7   12       1
    10    8    9       1
    11    8   10       1
    12   10   11       1
    13   10   12       1
    14   12   13       1
    15   13   14       1
    16   13   22       1
    17   14   15       2
    18   15   16       1
    19   16   17      ar
    20   16   22      ar
    21   17   18       1
    22   17   19      ar
    23   19   20      ar
    24   20   21      ar
    25   21   22      ar
    26   23   24       1
    27   23   40       2
    28   24   25       2
    29   24   26       1
    30   26   27       1
    31   27   28       2
    32   27   29       1
    33   29   30       2
    34   29   40       1
    35   30   31       1
    36   31   32      ar
    37   31   38      ar
    38   32   33      ar
    39   33   34       1
    40   33   35      ar
    41   35   36       1
    42   35   37      ar
    43   37   38      ar
    44   38   39       1
    45   39   40       1
    46   39   41       1
    47   41   42       1
    48   42   43       1
    49   42   44       1
    50   44   45       1
    51   44   46       1
    52   46   47       1
    53   46   48       1
    54   48   49       1
    55   49   50       1
    56   50   51      ar
    57   50   52      ar
    58   50   53       1
    59   48   84       1
    60    5   54       1
    61    5   55       1
    62    6   56       1
    63    8   57       1
    64    9   58       1
    65   10   59       1
    66   11   60       1
    67   12   61       1
    68   14   62       1
    69   18   63       1
    70   18   64       1
    71   20   65       1
    72   26   66       1
    73   32   67       1
    74   34   68       1
    75   34   69       1
    76   34   70       1
    77   36   71       1
    78   36   72       1
    79   36   73       1
    80   37   74       1
    81   41   75       1
    82   41   76       1
    83   42   77       1
    84   43   78       1
    85   44   79       1
    86   45   80       1
    87   46   81       1
    88   47   82       1
    89   48   83       1
@<TRIPOS>SUBSTRUCTURE
     1 FAD399      1 GROUP             4 C     FAD     0 **** FAD C 399
