@<TRIPOS>MOLECULE
1mo8_ATP_1_ligand
   43    45     1     0     0
SMALL
NO_CHARGES


@<TRIPOS>ATOM
     1 PG          -6.2880    -5.0420    15.8120 P.3          1 ATP900   0.0000
     2 O1G         -5.2870    -6.1110    15.6520 O.co2        1 ATP900   0.0000
     3 O2G         -6.4580    -4.5840    17.2040 O.co2        1 ATP900  -1.0000
     4 O3G         -7.5720    -5.3670    15.1750 O.co2        1 ATP900  -1.0000
     5 PB          -4.2780    -3.1100    14.9300 P.3          1 ATP900   0.0000
     6 O1B         -3.2630    -4.0900    14.5120 O.co2        1 ATP900   0.0000
     7 O2B         -4.0260    -2.4210    16.2130 O.co2        1 ATP900  -1.0000
     8 O3B         -5.7820    -3.7530    14.9800 O.3          1 ATP900   0.0000
     9 PA          -3.9470    -1.9620    12.2970 P.3          1 ATP900   0.0000
    10 O1A         -5.0790    -2.4600    11.4880 O.co2        1 ATP900   0.0000
    11 O2A         -2.5710    -2.4570    12.0940 O.co2        1 ATP900  -1.0000
    12 O3A         -4.3690    -1.8870    13.8590 O.3          1 ATP900   0.0000
    13 O5'         -3.9020    -0.3960    12.0430 O.3          1 ATP900   0.0000
    14 C5'         -2.8560     0.3970    12.5750 C.3          1 ATP900   0.0000
    15 C4'         -1.9640     1.0410    11.5120 C.3          1 ATP900   0.0000
    16 O4'         -0.7070     0.4360    11.2710 O.3          1 ATP900   0.0000
    17 C3'         -2.5900     1.1920    10.1070 C.3          1 ATP900   0.0000
    18 O3'         -2.7660     2.5620     9.8550 O.3          1 ATP900   0.0000
    19 C2'         -1.4920     0.7660     9.1180 C.3          1 ATP900   0.0000
    20 O2'         -1.4940     1.6070     7.9630 O.3          1 ATP900   0.0000
    21 C1'         -0.3350     1.0690    10.0600 C.3          1 ATP900   0.0000
    22 N9           1.0380     0.8120     9.6180 N.pl3        1 ATP900   0.0000
    23 C8           1.8790    -0.1980    10.0050 C.2          1 ATP900   0.0000
    24 N7           3.1280     0.1820    10.1230 N.2          1 ATP900   0.0000
    25 C5           3.1060     1.5120     9.7150 C.ar         1 ATP900   0.0000
    26 C6           4.0540     2.5580     9.7340 C.ar         1 ATP900   0.0000
    27 N6           5.2790     2.4410    10.2360 N.pl3        1 ATP900   0.0000
    28 N1           3.7110     3.7820     9.2990 N.ar         1 ATP900   0.0000
    29 C2           2.4490     3.9800     8.9160 C.ar         1 ATP900   0.0000
    30 N3           1.4500     3.1160     8.9040 N.ar         1 ATP900   0.0000
    31 C4           1.8520     1.8710     9.3020 C.ar         1 ATP900   0.0000
    32 H5'1        -2.2850    -0.1834    13.1556 H            1 ATP900   0.0000
    33 H5'2        -3.2624     1.1245    13.1278 H            1 ATP900   0.0000
    34 H4'         -1.7711     1.9681    11.8332 H            1 ATP900   0.0000
    35 H3'         -3.4339     0.6663     9.9998 H            1 ATP900   0.0000
    36 H5          -2.2428     2.8215     9.0433 H            1 ATP900   0.0000
    37 H2'         -1.5472    -0.2043     8.8826 H            1 ATP900   0.0000
    38 H7          -0.6077     2.0629     7.8811 H            1 ATP900   0.0000
    39 H1'         -0.3825     2.0513    10.2413 H            1 ATP900   0.0000
    40 H9           1.5704    -1.1329    10.1802 H            1 ATP900   0.0000
    41 H10          5.9032     3.2220    10.2185 H            1 ATP900   0.0000
    42 H11          5.5765     1.5719    10.6312 H            1 ATP900   0.0000
    43 H12          2.2307     4.9021     8.5965 H            1 ATP900   0.0000
@<TRIPOS>BOND
     1    1    2      ar
     2    1    3      ar
     3    1    4      ar
     4    1    8       1
     5    5    6      ar
     6    5    7      ar
     7    5    8       1
     8    5   12       1
     9    9   10      ar
    10    9   11      ar
    11    9   12       1
    12    9   13       1
    13   13   14       1
    14   14   15       1
    15   15   16       1
    16   15   17       1
    17   16   21       1
    18   17   18       1
    19   17   19       1
    20   19   20       1
    21   19   21       1
    22   21   22       1
    23   22   23       1
    24   22   31       1
    25   23   24       2
    26   24   25       1
    27   25   26      ar
    28   25   31      ar
    29   26   27       1
    30   26   28      ar
    31   28   29      ar
    32   29   30      ar
    33   30   31      ar
    34   29   43       1
    35   27   42       1
    36   27   41       1
    37   23   40       1
    38   14   32       1
    39   14   33       1
    40   15   34       1
    41   17   35       1
    42   18   36       1
    43   19   37       1
    44   20   38       1
    45   21   39       1
@<TRIPOS>SUBSTRUCTURE
     1 ATP900      1 GROUP             4 A     ATP     0 **** ATP A 900
