@<TRIPOS>MOLECULE
1c80_GTP_2_ligand
   44    46     1     0     0
SMALL
NO_CHARGES


@<TRIPOS>ATOM
     1 PG         -10.5410    17.2680    40.0580 P.3          1 GTP355   0.0000
     2 O1G         -9.7940    17.0580    38.8150 O.co2        1 GTP355   0.0000
     3 O2G        -12.0410    17.2190    40.0500 O.co2        1 GTP355  -1.0000
     4 O3G         -9.8550    18.1210    41.0340 O.co2        1 GTP355  -1.0000
     5 O3B        -10.0660    15.9830    40.7310 O.3          1 GTP355   0.0000
     6 PB          -9.0700    14.7850    40.2600 P.3          1 GTP355   0.0000
     7 O1B         -9.7570    13.5450    40.5920 O.co2        1 GTP355   0.0000
     8 O2B         -8.6270    14.9300    38.8080 O.co2        1 GTP355  -1.0000
     9 O3A         -7.8120    14.8750    41.2620 O.3          1 GTP355   0.0000
    10 PA          -7.2490    13.8950    42.4530 P.3          1 GTP355   0.0000
    11 O1A         -7.2220    12.5480    41.8610 O.co2        1 GTP355   0.0000
    12 O2A         -5.9770    14.4510    43.0330 O.co2        1 GTP355  -1.0000
    13 O5'         -8.4370    13.9960    43.5470 O.3          1 GTP355   0.0000
    14 C5'         -9.7940    13.6520    43.3070 C.3          1 GTP355   0.0000
    15 C4'        -10.7600    14.4410    44.1290 C.3          1 GTP355   0.0000
    16 O4'        -10.1110    14.9940    45.3190 O.3          1 GTP355   0.0000
    17 C3'        -11.2200    15.6430    43.3490 C.3          1 GTP355   0.0000
    18 O3'        -12.5690    16.0060    43.6720 O.3          1 GTP355   0.0000
    19 C2'        -10.2300    16.7450    43.8120 C.3          1 GTP355   0.0000
    20 O2'        -10.6560    18.0510    43.5670 O.3          1 GTP355   0.0000
    21 C1'        -10.1640    16.4530    45.3080 C.3          1 GTP355   0.0000
    22 N9          -8.9540    16.9780    46.0090 N.pl3        1 GTP355   0.0000
    23 C8          -8.0350    17.9810    45.6940 C.2          1 GTP355   0.0000
    24 N7          -7.1000    18.1490    46.5910 N.2          1 GTP355   0.0000
    25 C5          -7.4280    17.1830    47.5690 C.2          1 GTP355   0.0000
    26 C6          -6.8110    16.8170    48.8510 C.2          1 GTP355   0.0000
    27 O6          -5.8240    17.2770    49.4320 O.2          1 GTP355   0.0000
    28 N1          -7.5120    15.7690    49.4810 N.2          1 GTP355   0.0000
    29 C2          -8.6290    15.1660    48.9640 C.2          1 GTP355   0.0000
    30 N2          -9.2040    14.1810    49.6100 N.pl3        1 GTP355   0.0000
    31 N3          -9.1820    15.5060    47.8230 N.pl3        1 GTP355   0.0000
    32 C4          -8.5480    16.5060    47.1760 C.2          1 GTP355   0.0000
    33 H5'1        -9.9171    12.6821    43.5171 H            1 GTP355   0.0000
    34 H5'2        -9.9955    13.8119    42.3406 H            1 GTP355   0.0000
    35 H4'        -11.5414    13.8739    44.3893 H            1 GTP355   0.0000
    36 H3'        -11.1272    15.4794    42.3669 H            1 GTP355   0.0000
    37 H5         -13.1794    15.2428    43.4599 H            1 GTP355   0.0000
    38 H2'         -9.3334    16.5949    43.3953 H            1 GTP355   0.0000
    39 H7         -10.3387    18.3413    42.6642 H            1 GTP355   0.0000
    40 H1'        -10.9953    16.7740    45.7618 H            1 GTP355   0.0000
    41 H9          -8.0878    18.5232    44.8554 H            1 GTP355   0.0000
    42 H10        -10.0189    13.7426    49.2308 H            1 GTP355   0.0000
    43 H11         -8.8278    13.8679    50.4820 H            1 GTP355   0.0000
    44 H12        -10.0029    15.0619    47.4640 H            1 GTP355   0.0000
@<TRIPOS>BOND
     1    1    2      ar
     2    1    3      ar
     3    1    4      ar
     4    1    5       1
     5    5    6       1
     6    6    7      ar
     7    6    8      ar
     8    6    9       1
     9    9   10       1
    10   10   11      ar
    11   10   12      ar
    12   10   13       1
    13   13   14       1
    14   14   15       1
    15   15   16       1
    16   15   17       1
    17   16   21       1
    18   17   18       1
    19   17   19       1
    20   19   20       1
    21   19   21       1
    22   21   22       1
    23   22   23       1
    24   22   32       1
    25   23   24       2
    26   24   25       1
    27   25   26       1
    28   25   32       2
    29   26   27       2
    30   26   28       1
    31   28   29       2
    32   29   30       1
    33   29   31       1
    34   31   32       1
    35   30   43       1
    36   30   42       1
    37   21   40       1
    38   23   41       1
    39   14   33       1
    40   14   34       1
    41   15   35       1
    42   17   36       1
    43   18   37       1
    44   19   38       1
    45   20   39       1
    46   31   44       1
@<TRIPOS>SUBSTRUCTURE
     1 GTP355      1 GROUP             4 B     GTP     0 **** GTP B 355
