@<TRIPOS>MOLECULE
2ieo_017_1_ligand
   75    78     1     0     0
SMALL
NO_CHARGES


@<TRIPOS>ATOM
     1 N1          20.9120    28.9400    13.8770 N.pl3        1 017402   0.0000
     2 C2          20.3960    27.7490    14.3180 C.ar         1 017402   0.0000
     3 C3          19.0550    27.4970    14.0710 C.ar         1 017402   0.0000
     4 C4          18.4460    26.3080    14.4870 C.ar         1 017402   0.0000
     5 C5          19.2490    25.3190    15.0740 C.ar         1 017402   0.0000
     6 C6          20.5700    25.5650    15.4250 C.ar         1 017402   0.0000
     7 C7          21.1450    26.7850    15.0130 C.ar         1 017402   0.0000
     8 S8          18.3090    23.8960    15.7390 S.o2         1 017402   0.0000
     9 O9          17.1170    23.6220    14.7590 O.2          1 017402   0.0000
    10 O10         19.2840    22.6650    15.8560 O.2          1 017402   0.0000
    11 N11         17.6690    24.2910    17.3490 N.3          1 017402   0.0000
    12 C12         18.6620    24.5460    18.4100 C.3          1 017402   0.0000
    13 C13         18.3760    23.8900    19.7820 C.3          1 017402   0.0000
    14 C14         18.3260    22.3820    19.6680 C.3          1 017402   0.0000
    15 C15         19.5090    24.2820    20.7170 C.3          1 017402   0.0000
    16 C16         16.3770    25.0620    17.3560 C.3          1 017402   0.0000
    17 C17         15.1840    24.1760    17.8640 C.3          1 017402   0.0000
    18 O18         14.0630    24.9920    18.1820 O.3          1 017402   0.0000
    19 C19         14.8280    23.0050    16.8980 C.3          1 017402   0.0000
    20 N20         13.9380    22.0840    17.5730 N.am         1 017402   0.0000
    21 C21         14.2540    20.8040    17.9010 C.2          1 017402   0.0000
    22 O22         15.3620    20.2300    17.6100 O.2          1 017402   0.0000
    23 O23         13.1980    20.1860    18.6370 O.3          1 017402   0.0000
    24 C24         13.3750    18.7510    18.8950 C.3          1 017402   0.0000
    25 C25         12.7750    18.5040    20.2960 C.3          1 017402   0.0000
    26 O26         11.3490    18.5800    20.1260 O.3          1 017402   0.0000
    27 C27         11.0940    18.1750    18.7860 C.3          1 017402   0.0000
    28 O28         10.1320    18.9830    18.0780 O.3          1 017402   0.0000
    29 C29         10.8780    19.5250    16.9990 C.3          1 017402   0.0000
    30 C30         12.0020    18.5370    16.6520 C.3          1 017402   0.0000
    31 C31         12.3440    18.0180    18.0210 C.3          1 017402   0.0000
    32 C32         14.1590    23.4190    15.5500 C.3          1 017402   0.0000
    33 C33         12.4110    21.7690    14.6130 C.ar         1 017402   0.0000
    34 C34         12.0720    20.6320    13.8480 C.ar         1 017402   0.0000
    35 C35         13.0470    19.8970    13.1850 C.ar         1 017402   0.0000
    36 C36         14.3900    20.2920    13.3030 C.ar         1 017402   0.0000
    37 C37         14.7120    21.4400    14.0580 C.ar         1 017402   0.0000
    38 C38         13.7280    22.2030    14.7050 C.ar         1 017402   0.0000
    39 H1          21.8750    29.1574    14.0365 H            1 017402   0.0000
    40 H2          20.3254    29.5914    13.3958 H            1 017402   0.0000
    41 H3          18.5108    28.1806    13.5845 H            1 017402   0.0000
    42 H4          17.4631    26.1669    14.3688 H            1 017402   0.0000
    43 H5          21.0965    24.8985    15.9529 H            1 017402   0.0000
    44 H6          22.1061    26.9677    15.2200 H            1 017402   0.0000
    45 H7          18.7135    25.5350    18.5490 H            1 017402   0.0000
    46 H8          19.5465    24.2081    18.0882 H            1 017402   0.0000
    47 H9          17.5077    24.2297    20.1436 H            1 017402   0.0000
    48 H10         18.1402    21.9857    20.5671 H            1 017402   0.0000
    49 H11         17.6005    22.1197    19.0317 H            1 017402   0.0000
    50 H12         19.2043    22.0440    19.3298 H            1 017402   0.0000
    51 H13         19.3553    23.8733    21.6166 H            1 017402   0.0000
    52 H14         20.3770    23.9529    20.3452 H            1 017402   0.0000
    53 H15         19.5399    25.2777    20.8042 H            1 017402   0.0000
    54 H16         16.1786    25.3730    16.4265 H            1 017402   0.0000
    55 H17         16.4739    25.8539    17.9589 H            1 017402   0.0000
    56 H18         15.4844    23.7574    18.7211 H            1 017402   0.0000
    57 H19         14.0668    25.8051    17.5999 H            1 017402   0.0000
    58 H20         15.6731    22.5150    16.6842 H            1 017402   0.0000
    59 H21         13.0254    22.4135    17.8151 H            1 017402   0.0000
    60 H22         14.3141    18.4253    18.7855 H            1 017402   0.0000
    61 H23         13.0877    19.2042    20.9378 H            1 017402   0.0000
    62 H24         13.0384    17.6005    20.6340 H            1 017402   0.0000
    63 H25         10.6929    17.2610    18.8471 H            1 017402   0.0000
    64 H26         11.2708    20.4048    17.2666 H            1 017402   0.0000
    65 H27         10.2826    19.6532    16.2059 H            1 017402   0.0000
    66 H28         12.7808    18.9984    16.2271 H            1 017402   0.0000
    67 H29         11.6786    17.8065    16.0505 H            1 017402   0.0000
    68 H30         12.5822    17.0486    17.9626 H            1 017402   0.0000
    69 H31         14.8121    23.9613    15.0214 H            1 017402   0.0000
    70 H32         13.3508    23.9728    15.7502 H            1 017402   0.0000
    71 H33         11.6926    22.2697    15.0960 H            1 017402   0.0000
    72 H34         11.1145    20.3510    13.7822 H            1 017402   0.0000
    73 H35         12.7972    19.1010    12.6336 H            1 017402   0.0000
    74 H36         15.1119    19.7640    12.8557 H            1 017402   0.0000
    75 H37         15.6696    21.7179    14.1341 H            1 017402   0.0000
@<TRIPOS>BOND
     1    1    2       1
     2    2    3      ar
     3    2    7      ar
     4    3    4      ar
     5    4    5      ar
     6    5    6      ar
     7    5    8       1
     8    6    7      ar
     9    8    9       2
    10    8   10       2
    11    8   11       1
    12   11   12       1
    13   11   16       1
    14   12   13       1
    15   13   14       1
    16   13   15       1
    17   16   17       1
    18   17   18       1
    19   17   19       1
    20   19   20       1
    21   19   32       1
    22   20   21      am
    23   21   22       2
    24   21   23       1
    25   23   24       1
    26   24   25       1
    27   24   31       1
    28   25   26       1
    29   26   27       1
    30   27   28       1
    31   27   31       1
    32   28   29       1
    33   29   30       1
    34   30   31       1
    35   32   38       1
    36   33   34      ar
    37   33   38      ar
    38   34   35      ar
    39   35   36      ar
    40   36   37      ar
    41   37   38      ar
    42    1   39       1
    43    1   40       1
    44    3   41       1
    45    4   42       1
    46    6   43       1
    47    7   44       1
    48   12   45       1
    49   12   46       1
    50   13   47       1
    51   14   48       1
    52   14   49       1
    53   14   50       1
    54   15   51       1
    55   15   52       1
    56   15   53       1
    57   16   54       1
    58   16   55       1
    59   17   56       1
    60   18   57       1
    61   19   58       1
    62   20   59       1
    63   24   60       1
    64   25   61       1
    65   25   62       1
    66   27   63       1
    67   29   64       1
    68   29   65       1
    69   30   66       1
    70   30   67       1
    71   31   68       1
    72   32   69       1
    73   32   70       1
    74   33   71       1
    75   34   72       1
    76   35   73       1
    77   36   74       1
    78   37   75       1
@<TRIPOS>SUBSTRUCTURE
     1 017402      1 GROUP             4 A     017     0 **** 017 A 402
