@<TRIPOS>MOLECULE
1zx9_FAD_1_ligand
   84    89     1     0     0
SMALL
NO_CHARGES


@<TRIPOS>ATOM
     1 PA         115.0450    41.8370   -50.2090 P.3          1 FAD666   0.0000
     2 O1A        113.5820    42.0490   -50.0720 O.co2        1 FAD666   0.0000
     3 O2A        115.4920    40.9210   -51.2920 O.co2        1 FAD666  -1.0000
     4 O5B        115.5850    41.2240   -48.8810 O.3          1 FAD666   0.0000
     5 C5B        115.8180    41.8870   -47.6440 C.3          1 FAD666   0.0000
     6 C4B        116.2330    40.7360   -46.7560 C.3          1 FAD666   0.0000
     7 O4B        116.5660    41.1460   -45.4060 O.3          1 FAD666   0.0000
     8 C3B        115.1500    39.6130   -46.5750 C.3          1 FAD666   0.0000
     9 O3B        115.7500    38.3250   -46.7700 O.3          1 FAD666   0.0000
    10 C2B        114.6340    39.8540   -45.2180 C.3          1 FAD666   0.0000
    11 O2B        114.0100    38.8180   -44.5260 O.3          1 FAD666   0.0000
    12 C1B        115.8570    40.3340   -44.4500 C.3          1 FAD666   0.0000
    13 N9A        115.6340    41.1380   -43.2830 N.pl3        1 FAD666   0.0000
    14 C8A        114.7560    42.2300   -43.0580 C.2          1 FAD666   0.0000
    15 N7A        114.8280    42.7300   -41.8620 N.2          1 FAD666   0.0000
    16 C5A        115.7960    41.9640   -41.2050 C.ar         1 FAD666   0.0000
    17 C6A        116.3440    41.9930   -39.8970 C.ar         1 FAD666   0.0000
    18 N6A        115.9570    42.8810   -38.9740 N.pl3        1 FAD666   0.0000
    19 N1A        117.3230    41.0550   -39.5700 N.ar         1 FAD666   0.0000
    20 C2A        117.7430    40.1370   -40.4810 C.ar         1 FAD666   0.0000
    21 N3A        117.2530    40.0380   -41.8030 N.ar         1 FAD666   0.0000
    22 C4A        116.2540    41.0510   -42.0270 C.ar         1 FAD666   0.0000
    23 N1         112.5320    43.3930   -59.4890 N.2          1 FAD666   0.0000
    24 C2         113.0960    43.3450   -60.7490 C.2          1 FAD666   0.0000
    25 O2         114.1430    43.9610   -61.0180 O.2          1 FAD666   0.0000
    26 N3         112.4660    42.5830   -61.7280 N.pl3        1 FAD666   0.0000
    27 C4         111.2740    41.8300   -61.5520 C.2          1 FAD666   0.0000
    28 O4         110.7920    41.1650   -62.5300 O.2          1 FAD666   0.0000
    29 C4X        110.7380    41.8910   -60.2850 C.2          1 FAD666   0.0000
    30 N5         109.5270    41.1280   -60.0550 N.2          1 FAD666   0.0000
    31 C5X        108.9800    41.1730   -58.7410 C.ar         1 FAD666   0.0000
    32 C6         107.8020    40.4450   -58.4180 C.ar         1 FAD666   0.0000
    33 C7         107.2180    40.4370   -57.1090 C.ar         1 FAD666   0.0000
    34 C7M        105.9420    39.6170   -56.8390 C.3          1 FAD666   0.0000
    35 C8         107.8640    41.2010   -56.0790 C.ar         1 FAD666   0.0000
    36 C8M        107.3520    41.2620   -54.6430 C.3          1 FAD666   0.0000
    37 C9         109.0100    41.9320   -56.3520 C.ar         1 FAD666   0.0000
    38 C9A        109.5920    41.9550   -57.6480 C.ar         1 FAD666   0.0000
    39 N10        110.8270    42.7080   -58.0130 N.pl3        1 FAD666   0.0000
    40 C10        111.3740    42.6720   -59.2750 C.2          1 FAD666   0.0000
    41 C1'        111.4070    43.4660   -56.9560 C.3          1 FAD666   0.0000
    42 C2'        112.6320    42.8930   -56.3540 C.3          1 FAD666   0.0000
    43 O2'        112.2310    41.5830   -55.8650 O.3          1 FAD666   0.0000
    44 C3'        113.1560    43.6570   -55.1910 C.3          1 FAD666   0.0000
    45 O3'        113.3630    45.0300   -55.5050 O.3          1 FAD666   0.0000
    46 C4'        114.5000    43.2050   -54.6310 C.3          1 FAD666   0.0000
    47 O4'        114.3630    41.7830   -54.3160 O.3          1 FAD666   0.0000
    48 C5'        114.8810    43.9100   -53.3880 C.3          1 FAD666   0.0000
    49 O5'        116.1350    43.4350   -52.9030 O.3          1 FAD666   0.0000
    50 P          116.7140    43.9010   -51.5270 P.3          1 FAD666   0.0000
    51 O1P        118.0020    43.2430   -51.3860 O.co2        1 FAD666   0.0000
    52 O2P        116.6920    45.3900   -51.4190 O.co2        1 FAD666  -1.0000
    53 O3P        115.6010    43.3070   -50.5230 O.3          1 FAD666   0.0000
    54 H5B1       114.9875    42.3288   -47.3046 H            1 FAD666   0.0000
    55 H5B2       116.5473    42.5663   -47.7257 H            1 FAD666   0.0000
    56 H4B        117.0463    40.3158   -47.1584 H            1 FAD666   0.0000
    57 H3B        114.4158    39.7450   -47.2410 H            1 FAD666   0.0000
    58 H5         116.4798    38.1922   -46.0993 H            1 FAD666   0.0000
    59 H2B        113.9891    40.6165   -45.2693 H            1 FAD666   0.0000
    60 H7         114.6509    38.0586   -44.4139 H            1 FAD666   0.0000
    61 H1B        116.4216    39.5461   -44.2041 H            1 FAD666   0.0000
    62 H8A        114.1364    42.5833   -43.7589 H            1 FAD666   0.0000
    63 H6A1       116.3691    42.8671   -38.0630 H            1 FAD666   0.0000
    64 H6A2       115.2556    43.5586   -39.1952 H            1 FAD666   0.0000
    65 H2A        118.4473    39.4869   -40.1958 H            1 FAD666   0.0000
    66 H13        112.8888    42.5636   -62.6340 H            1 FAD666   0.0000
    67 H14        107.3593    39.9125   -59.1394 H            1 FAD666   0.0000
    68 H7M1       105.6736    39.7236   -55.8816 H            1 FAD666   0.0000
    69 H7M2       105.2046    39.9436   -57.4302 H            1 FAD666   0.0000
    70 H7M3       106.1196    38.6516   -57.0299 H            1 FAD666   0.0000
    71 H8M1       107.9521    41.8493   -54.0998 H            1 FAD666   0.0000
    72 H8M2       106.4243    41.6353   -54.6354 H            1 FAD666   0.0000
    73 H8M3       107.3441    40.3414   -54.2526 H            1 FAD666   0.0000
    74 H21        109.4386    42.4573   -55.6169 H            1 FAD666   0.0000
    75 H1'1       110.7229    43.5581   -56.2324 H            1 FAD666   0.0000
    76 H1'2       111.6354    44.3706   -57.3158 H            1 FAD666   0.0000
    77 H2'        113.3436    42.7965   -57.0500 H            1 FAD666   0.0000
    78 H25        112.7830    41.3418   -55.0668 H            1 FAD666   0.0000
    79 H3'        112.4802    43.6053   -54.4557 H            1 FAD666   0.0000
    80 H27        113.2327    45.5834   -54.6823 H            1 FAD666   0.0000
    81 H4'        115.2123    43.3303   -55.3216 H            1 FAD666   0.0000
    82 H29        114.5287    41.6403   -53.3402 H            1 FAD666   0.0000
    83 H5'1       114.1794    43.7525   -52.6931 H            1 FAD666   0.0000
    84 H5'2       114.9512    44.8899   -53.5748 H            1 FAD666   0.0000
@<TRIPOS>BOND
     1    1    2      ar
     2    1    3      ar
     3    1    4       1
     4    1   53       1
     5    4    5       1
     6    5    6       1
     7    6    7       1
     8    6    8       1
     9    7   12       1
    10    8    9       1
    11    8   10       1
    12   10   11       1
    13   10   12       1
    14   12   13       1
    15   13   14       1
    16   13   22       1
    17   14   15       2
    18   15   16       1
    19   16   17      ar
    20   16   22      ar
    21   17   18       1
    22   17   19      ar
    23   19   20      ar
    24   20   21      ar
    25   21   22      ar
    26   23   24       1
    27   23   40       2
    28   24   25       2
    29   24   26       1
    30   26   27       1
    31   27   28       2
    32   27   29       1
    33   29   30       2
    34   29   40       1
    35   30   31       1
    36   31   32      ar
    37   31   38      ar
    38   32   33      ar
    39   33   34       1
    40   33   35      ar
    41   35   36       1
    42   35   37      ar
    43   37   38      ar
    44   38   39       1
    45   39   40       1
    46   39   41       1
    47   41   42       1
    48   42   43       1
    49   42   44       1
    50   44   45       1
    51   44   46       1
    52   46   47       1
    53   46   48       1
    54   48   49       1
    55   49   50       1
    56   50   51      ar
    57   50   52      ar
    58   50   53       1
    59   48   84       1
    60    5   54       1
    61    5   55       1
    62    6   56       1
    63    8   57       1
    64    9   58       1
    65   10   59       1
    66   11   60       1
    67   12   61       1
    68   14   62       1
    69   18   63       1
    70   18   64       1
    71   20   65       1
    72   26   66       1
    73   32   67       1
    74   34   68       1
    75   34   69       1
    76   34   70       1
    77   36   71       1
    78   36   72       1
    79   36   73       1
    80   37   74       1
    81   41   75       1
    82   41   76       1
    83   42   77       1
    84   43   78       1
    85   44   79       1
    86   45   80       1
    87   46   81       1
    88   47   82       1
    89   48   83       1
@<TRIPOS>SUBSTRUCTURE
     1 FAD666      1 GROUP             4 A     FAD     0 **** FAD A 666
