@<TRIPOS>MOLECULE
3iel_U5P_1_ligand
   32    33     1     0     0
SMALL
NO_CHARGES


@<TRIPOS>ATOM
     1 N1          24.2030   -10.3850    35.1330 N.pl3        1 U5P465   0.0000
     2 C2          23.9900   -11.6920    34.4850 C.2          1 U5P465   0.0000
     3 N3          23.5620   -12.7460    35.2470 N.pl3        1 U5P465   0.0000
     4 C4          23.3260   -12.6080    36.6110 C.2          1 U5P465   0.0000
     5 C5          23.5200   -11.3670    37.2800 C.2          1 U5P465   0.0000
     6 C6          23.9670   -10.2550    36.4990 C.2          1 U5P465   0.0000
     7 O2          24.1890   -11.8790    33.2360 O.2          1 U5P465   0.0000
     8 O4          22.9310   -13.6330    37.2340 O.2          1 U5P465   0.0000
     9 C1'         24.6620    -9.3050    34.1970 C.3          1 U5P465   0.0000
    10 C2'         23.7620    -8.1350    33.8190 C.3          1 U5P465   0.0000
    11 O2'         23.7760    -7.8550    32.4050 O.3          1 U5P465   0.0000
    12 C3'         24.2830    -6.9560    34.6480 C.3          1 U5P465   0.0000
    13 C4'         25.7430    -7.3230    34.9530 C.3          1 U5P465   0.0000
    14 O3'         24.2180    -5.6910    33.9880 O.3          1 U5P465   0.0000
    15 O4'         25.9000    -8.7350    34.6860 O.3          1 U5P465   0.0000
    16 C5'         26.2260    -6.9790    36.3940 C.3          1 U5P465   0.0000
    17 O5'         25.1650    -6.9020    37.3750 O.3          1 U5P465   0.0000
    18 P           25.4110    -6.4620    38.7900 P.3          1 U5P465   0.0000
    19 O1P         25.1160    -5.0350    38.9400 O.co2        1 U5P465   0.0000
    20 O2P         24.5510    -7.4150    39.7760 O.co2        1 U5P465  -1.0000
    21 O3P         26.8520    -6.6980    39.1570 O.co2        1 U5P465  -1.0000
    22 H1          23.4158   -13.6351    34.8132 H            1 U5P465   0.0000
    23 H2          23.3499   -11.2756    38.2612 H            1 U5P465   0.0000
    24 H3          24.1123    -9.3700    36.9413 H            1 U5P465   0.0000
    25 H1'         24.8910    -9.7642    33.3387 H            1 U5P465   0.0000
    26 H2'         22.8249    -8.3414    34.1004 H            1 U5P465   0.0000
    27 H6          24.0996    -6.9210    32.2533 H            1 U5P465   0.0000
    28 H3'         23.7710    -6.9058    35.5055 H            1 U5P465   0.0000
    29 H4'         26.3237    -6.8244    34.3094 H            1 U5P465   0.0000
    30 H9          24.9577    -5.1045    34.3180 H            1 U5P465   0.0000
    31 H5'1        26.6911    -6.0942    36.3656 H            1 U5P465   0.0000
    32 H5'2        26.8711    -7.6855    36.6851 H            1 U5P465   0.0000
@<TRIPOS>BOND
     1    1    2       1
     2    1    6       1
     3    1    9       1
     4    2    3       1
     5    2    7       2
     6    3    4       1
     7    4    5       1
     8    4    8       2
     9    5    6       2
    10    9   10       1
    11    9   15       1
    12   10   11       1
    13   10   12       1
    14   12   13       1
    15   12   14       1
    16   13   15       1
    17   13   16       1
    18   16   17       1
    19   17   18       1
    20   18   19      ar
    21   18   20      ar
    22   18   21      ar
    23    3   22       1
    24    5   23       1
    25    6   24       1
    26    9   25       1
    27   10   26       1
    28   11   27       1
    29   12   28       1
    30   13   29       1
    31   14   30       1
    32   16   31       1
    33   16   32       1
@<TRIPOS>SUBSTRUCTURE
     1 U5P465      1 GROUP             4 A     U5P     0 **** U5P A 465
