@<TRIPOS>MOLECULE
3mtl_FEF_1_ligand
   46    49     1     0     0
SMALL
NO_CHARGES


@<TRIPOS>ATOM
     1 OAV         -6.5720   -25.6270    12.5570 O.2          1 FEF668   0.0000
     2 CAT         -7.6770   -25.0690    12.5090 C.2          1 FEF668   0.0000
     3 CAR         -8.6300   -25.0720    13.5270 C.2          1 FEF668   0.0000
     4 CAS         -9.6650   -24.2370    13.0860 C.ar         1 FEF668   0.0000
     5 CAX        -10.9140   -23.8430    13.5950 C.ar         1 FEF668   0.0000
     6 CAY        -11.7640   -23.0000    12.8640 C.ar         1 FEF668   0.0000
     7 CAZ        -11.3770   -22.5420    11.5980 C.ar         1 FEF668   0.0000
     8 CBA        -10.1370   -22.9390    11.0800 C.ar         1 FEF668   0.0000
     9 CAW         -9.2810   -23.7760    11.8170 C.ar         1 FEF668   0.0000
    10 NAU         -8.0540   -24.2400    11.5440 N.am         1 FEF668   0.0000
    11 CAI         -8.4230   -25.7300    14.7620 C.2          1 FEF668   0.0000
    12 CAG         -9.2380   -25.7470    15.9040 C.2          1 FEF668   0.0000
    13 CAD         -8.5730   -26.4840    16.8860 C.ar         1 FEF668   0.0000
    14 CAC         -8.8810   -26.8860    18.1910 C.ar         1 FEF668   0.0000
    15 CAA         -7.9570   -27.6170    18.9450 C.ar         1 FEF668   0.0000
    16 CAB         -6.7320   -27.9940    18.3870 C.ar         1 FEF668   0.0000
    17 CAF         -6.4340   -27.6060    17.0800 C.ar         1 FEF668   0.0000
    18 CAE         -7.3550   -26.8580    16.3290 C.ar         1 FEF668   0.0000
    19 NAH         -7.2960   -26.3760    15.0830 N.pl3        1 FEF668   0.0000
    20 NAJ        -10.4660   -25.2310    16.0350 N.2          1 FEF668   0.0000
    21 OAK        -11.1740   -25.2950    17.2000 O.3          1 FEF668   0.0000
    22 CAL        -11.6400   -24.0010    17.6180 C.3          1 FEF668   0.0000
    23 CAM        -13.0650   -24.1690    18.1790 C.3          1 FEF668   0.0000
    24 CAN        -13.5240   -22.9690    19.0210 C.3          1 FEF668   0.0000
    25 OAQ        -14.8910   -23.1390    19.4090 O.3          1 FEF668   0.0000
    26 CAO        -12.6560   -22.8350    20.2730 C.3          1 FEF668   0.0000
    27 OAP        -12.7960   -23.9960    21.0920 O.3          1 FEF668   0.0000
    28 HAX        -11.2023   -24.1697    14.4951 H            1 FEF668   0.0000
    29 HAY        -12.6463   -22.7259    13.2466 H            1 FEF668   0.0000
    30 HAZ        -11.9773   -21.9401    11.0713 H            1 FEF668   0.0000
    31 HBA         -9.8571   -22.6226    10.1736 H            1 FEF668   0.0000
    32 HAU         -7.5090   -23.9997    10.7407 H            1 FEF668   0.0000
    33 HAC         -9.7681   -26.6489    18.5871 H            1 FEF668   0.0000
    34 HAA         -8.1738   -27.8711    19.8876 H            1 FEF668   0.0000
    35 HAB         -6.0783   -28.5342    18.9170 H            1 FEF668   0.0000
    36 HAF         -5.5567   -27.8630    16.6747 H            1 FEF668   0.0000
    37 HAH         -6.5123   -26.4842    14.4713 H            1 FEF668   0.0000
    38 HAL1       -11.6537   -23.3764    16.8372 H            1 FEF668   0.0000
    39 HAL2       -11.0368   -23.6354    18.3268 H            1 FEF668   0.0000
    40 HAM1       -13.0872   -24.9878    18.7526 H            1 FEF668   0.0000
    41 HAM2       -13.6978   -24.2814    17.4129 H            1 FEF668   0.0000
    42 HAN        -13.4406   -22.1355    18.4748 H            1 FEF668   0.0000
    43 HAQ        -15.1822   -22.3544    19.9564 H            1 FEF668   0.0000
    44 HAO1       -12.9431   -22.0286    20.7900 H            1 FEF668   0.0000
    45 HAO2       -11.6985   -22.7341    20.0027 H            1 FEF668   0.0000
    46 HAP        -13.7526   -24.0981    21.3648 H            1 FEF668   0.0000
@<TRIPOS>BOND
     1    1    2       2
     2    2    3       1
     3    2   10      am
     4    3    4       1
     5    3   11       2
     6    4    5      ar
     7    4    9      ar
     8    5    6      ar
     9    6    7      ar
    10    7    8      ar
    11    8    9      ar
    12    9   10       1
    13   11   12       1
    14   11   19       1
    15   12   13       1
    16   12   20       2
    17   13   14      ar
    18   13   18      ar
    19   14   15      ar
    20   15   16      ar
    21   16   17      ar
    22   17   18      ar
    23   18   19       1
    24   20   21       1
    25   21   22       1
    26   22   23       1
    27   23   24       1
    28   24   25       1
    29   24   26       1
    30   26   27       1
    31    5   28       1
    32    6   29       1
    33    7   30       1
    34    8   31       1
    35   10   32       1
    36   14   33       1
    37   15   34       1
    38   16   35       1
    39   17   36       1
    40   19   37       1
    41   22   38       1
    42   22   39       1
    43   23   40       1
    44   23   41       1
    45   24   42       1
    46   25   43       1
    47   26   44       1
    48   26   45       1
    49   27   46       1
@<TRIPOS>SUBSTRUCTURE
     1 FEF668      1 GROUP             4 A     FEF     0 **** FEF A 668
