@<TRIPOS>MOLECULE
3zoe_HBA_1_ligand
   15    15     1     0     0
SMALL
NO_CHARGES


@<TRIPOS>ATOM
     1 C1'         33.6060    78.0460    94.9890 C.2          1 HBA200   0.0000
     2 O1'         34.1070    78.4780    93.9610 O.2          1 HBA200   0.0000
     3 C1          33.4080    76.5880    95.1630 C.ar         1 HBA200   0.0000
     4 C2          32.9850    76.1620    96.4140 C.ar         1 HBA200   0.0000
     5 C3          32.8280    74.7910    96.6410 C.ar         1 HBA200   0.0000
     6 C4          33.0750    73.8700    95.6290 C.ar         1 HBA200   0.0000
     7 C5          33.5010    74.2950    94.3550 C.ar         1 HBA200   0.0000
     8 C6          33.6710    75.6640    94.1270 C.ar         1 HBA200   0.0000
     9 O4          32.8960    72.5510    95.9250 O.3          1 HBA200   0.0000
    10 H1'         33.3295    78.6775    95.7134 H            1 HBA200   0.0000
    11 H2          32.7959    76.8232    97.1400 H            1 HBA200   0.0000
    12 H3          32.5348    74.4694    97.5413 H            1 HBA200   0.0000
    13 H4          33.6782    73.6310    93.6286 H            1 HBA200   0.0000
    14 H5          33.9781    75.9885    93.2324 H            1 HBA200   0.0000
    15 H6          33.0624    71.8548    95.2267 H            1 HBA200   0.0000
@<TRIPOS>BOND
     1    1    2       2
     2    1    3       1
     3    3    4      ar
     4    3    8      ar
     5    4    5      ar
     6    5    6      ar
     7    6    7      ar
     8    6    9       1
     9    7    8      ar
    10    1   10       1
    11    4   11       1
    12    5   12       1
    13    7   13       1
    14    8   14       1
    15    9   15       1
@<TRIPOS>SUBSTRUCTURE
     1 HBA200      1 GROUP             4 A     HBA     0 **** HBA A 200
