@<TRIPOS>MOLECULE
1enz_NAD_1_ligand
   70    74     1     0     0
SMALL
NO_CHARGES


@<TRIPOS>ATOM
     1 PA          -1.1470    34.2890    11.0490 P.3          1 NAD500   0.0000
     2 O1A         -1.4090    33.1350    10.0730 O.co2        1 NAD500   0.0000
     3 O2A          0.0520    35.2920    10.9510 O.co2        1 NAD500  -1.0000
     4 O5B         -0.8900    33.3500    12.4000 O.3          1 NAD500   0.0000
     5 C5B         -1.2050    33.4710    13.7960 C.3          1 NAD500   0.0000
     6 C4B         -0.3070    32.4190    14.4150 C.3          1 NAD500   0.0000
     7 O4B         -0.8120    31.1940    15.0400 O.3          1 NAD500   0.0000
     8 C3B          0.9270    32.0200    13.6300 C.3          1 NAD500   0.0000
     9 O3B          1.7850    32.9110    14.1750 O.3          1 NAD500   0.0000
    10 C2B          1.2420    30.5830    14.0630 C.3          1 NAD500   0.0000
    11 O2B          2.6060    30.3650    14.3310 O.3          1 NAD500   0.0000
    12 C1B          0.4070    30.5040    15.3570 C.3          1 NAD500   0.0000
    13 N9A          0.1450    29.1690    15.8810 N.pl3        1 NAD500   0.0000
    14 C8A         -0.6110    28.0700    15.6430 C.2          1 NAD500   0.0000
    15 N7A         -0.4720    27.1010    16.5210 N.2          1 NAD500   0.0000
    16 C5A          0.4360    27.6300    17.4040 C.ar         1 NAD500   0.0000
    17 C6A          1.0350    27.0700    18.5140 C.ar         1 NAD500   0.0000
    18 N6A          0.7650    25.8070    18.8920 N.pl3        1 NAD500   0.0000
    19 N1A          1.9260    27.8440    19.1710 N.ar         1 NAD500   0.0000
    20 C2A          2.1780    29.0830    18.7530 C.ar         1 NAD500   0.0000
    21 N3A          1.6990    29.6870    17.6730 N.ar         1 NAD500   0.0000
    22 C4A          0.8550    28.8790    17.0190 C.ar         1 NAD500   0.0000
    23 O3          -2.3820    35.1860    11.1590 O.3          1 NAD500   0.0000
    24 PN          -2.9280    36.5000    11.8480 P.3          1 NAD500   0.0000
    25 O1N         -4.3320    36.5930    11.1690 O.co2        1 NAD500   0.0000
    26 O2N         -1.8730    37.5860    11.9490 O.co2        1 NAD500  -1.0000
    27 O5D         -3.2180    35.9700    13.4170 O.3          1 NAD500   0.0000
    28 C5D         -3.2240    36.9490    14.4380 C.3          1 NAD500   0.0000
    29 C4D         -4.5120    36.8260    15.1760 C.3          1 NAD500   0.0000
    30 O4D         -5.4420    37.8410    14.7170 O.3          1 NAD500   0.0000
    31 C3D         -5.1780    35.5310    14.7870 C.3          1 NAD500   0.0000
    32 O3D         -5.3140    34.7870    15.9640 O.3          1 NAD500   0.0000
    33 C2D         -6.5600    35.8880    14.2270 C.3          1 NAD500   0.0000
    34 O2D         -7.5710    35.0870    14.8150 O.3          1 NAD500   0.0000
    35 C1D         -6.7350    37.3050    14.7130 C.3          1 NAD500   0.0000
    36 N1N         -7.5280    38.1380    13.8520 N.ar         1 NAD500   1.0000
    37 C2N         -7.2880    38.0450    12.5540 C.ar         1 NAD500   0.0000
    38 C3N         -7.9390    38.6140    11.5270 C.ar         1 NAD500   0.0000
    39 C7N         -7.5930    38.5130    10.1490 C.2          1 NAD500   0.0000
    40 O7N         -8.5160    38.8750     9.1860 O.2          1 NAD500   0.0000
    41 N7N         -6.3480    38.1720     9.8270 N.am         1 NAD500   0.0000
    42 C4N         -8.8630    39.4720    11.9990 C.ar         1 NAD500   0.0000
    43 C5N         -9.2120    39.6910    13.3270 C.ar         1 NAD500   0.0000
    44 C6N         -8.5070    38.9330    14.2770 C.ar         1 NAD500   0.0000
    45 H5B1        -2.1697    33.2726    13.9692 H            1 NAD500   0.0000
    46 H5B2        -0.9855    34.3839    14.1400 H            1 NAD500   0.0000
    47 H4B          0.0862    32.9077    15.1938 H            1 NAD500   0.0000
    48 H3B          0.8205    32.1235    12.6411 H            1 NAD500   0.0000
    49 H5           2.2204    32.5057    14.9789 H            1 NAD500   0.0000
    50 H2B          0.9062    29.9285    13.3856 H            1 NAD500   0.0000
    51 H7           2.6992    29.6548    15.0288 H            1 NAD500   0.0000
    52 H1B          0.8830    31.0262    16.0647 H            1 NAD500   0.0000
    53 H8A         -1.2279    28.0010    14.8590 H            1 NAD500   0.0000
    54 H6A1         1.2103    25.4208    19.6998 H            1 NAD500   0.0000
    55 H6A2         0.1190    25.2547    18.3651 H            1 NAD500   0.0000
    56 H2A          2.8016    29.6216    19.3197 H            1 NAD500   0.0000
    57 H5D1        -3.1479    37.8613    14.0355 H            1 NAD500   0.0000
    58 H5D2        -2.4579    36.7950    15.0620 H            1 NAD500   0.0000
    59 H4D         -4.3719    36.8808    16.1646 H            1 NAD500   0.0000
    60 H3D         -4.6331    35.0360    14.1102 H            1 NAD500   0.0000
    61 H17         -5.2765    33.8114    15.7478 H            1 NAD500   0.0000
    62 H2D         -6.5796    35.8344    13.2286 H            1 NAD500   0.0000
    63 H19         -7.1891    34.1965    15.0623 H            1 NAD500   0.0000
    64 H1D         -7.1125    37.3079    15.6390 H            1 NAD500   0.0000
    65 H2N         -6.5107    37.4685    12.3021 H            1 NAD500   0.0000
    66 H7N1        -6.0834    38.0952     8.8657 H            1 NAD500   0.0000
    67 H7N2        -5.6768    37.9925    10.5463 H            1 NAD500   0.0000
    68 H4N         -9.3543    40.0135    11.3167 H            1 NAD500   0.0000
    69 H5N         -9.9201    40.3466    13.5894 H            1 NAD500   0.0000
    70 H6N         -8.7353    38.9895    15.2489 H            1 NAD500   0.0000
@<TRIPOS>BOND
     1    1    2      ar
     2    1    3      ar
     3    1    4       1
     4    1   23       1
     5    4    5       1
     6    5    6       1
     7    6    7       1
     8    6    8       1
     9    7   12       1
    10    8    9       1
    11    8   10       1
    12   10   11       1
    13   10   12       1
    14   12   13       1
    15   13   14       1
    16   13   22       1
    17   14   15       2
    18   15   16       1
    19   16   17      ar
    20   16   22      ar
    21   17   18       1
    22   17   19      ar
    23   19   20      ar
    24   20   21      ar
    25   21   22      ar
    26   23   24       1
    27   24   25      ar
    28   24   26      ar
    29   24   27       1
    30   27   28       1
    31   28   29       1
    32   29   30       1
    33   29   31       1
    34   30   35       1
    35   31   32       1
    36   31   33       1
    37   33   34       1
    38   33   35       1
    39   35   36       1
    40   36   37      ar
    41   36   44      ar
    42   37   38      ar
    43   38   39       1
    44   38   42      ar
    45   39   40       2
    46   39   41      am
    47   42   43      ar
    48   43   44      ar
    49   44   70       1
    50    5   45       1
    51    5   46       1
    52    6   47       1
    53    8   48       1
    54    9   49       1
    55   10   50       1
    56   11   51       1
    57   12   52       1
    58   14   53       1
    59   18   54       1
    60   18   55       1
    61   20   56       1
    62   43   69       1
    63   28   57       1
    64   28   58       1
    65   29   59       1
    66   31   60       1
    67   32   61       1
    68   33   62       1
    69   34   63       1
    70   35   64       1
    71   37   65       1
    72   41   66       1
    73   41   67       1
    74   42   68       1
@<TRIPOS>SUBSTRUCTURE
     1 NAD500      1 GROUP             4 A     NAD     0 **** NAD A 500
