@<TRIPOS>MOLECULE
4dem_YS4_1_ligand
   42    43     1     0     0
SMALL
NO_CHARGES


@<TRIPOS>ATOM
     1 O5          14.8450    36.5870    -7.9400 O.co2        1 YS4401   0.0000
     2 P2          15.0580    35.3280    -7.0830 P.3          1 YS4401   0.0000
     3 O6          16.4400    35.4000    -6.4240 O.co2        1 YS4401  -1.0000
     4 O7          14.0780    35.1500    -5.9180 O.co2        1 YS4401  -1.0000
     5 C13         14.9310    33.8420    -8.1510 C.3          1 YS4401   0.0000
     6 P1          16.1540    33.8550    -9.4970 P.3          1 YS4401   0.0000
     7 O3          17.5570    33.7080    -8.7730 O.co2        1 YS4401   0.0000
     8 O2          15.9720    32.5800   -10.3420 O.co2        1 YS4401  -1.0000
     9 O4          16.0610    35.0730   -10.3990 O.co2        1 YS4401  -1.0000
    10 N1          15.1780    32.6830    -7.2530 N.pl3        1 YS4401   0.0000
    11 C12         14.8940    31.3970    -7.5640 C.ar         1 YS4401   0.0000
    12 C11         15.6940    30.3400    -7.0720 C.ar         1 YS4401   0.0000
    13 N2          13.9000    31.1470    -8.4950 N.ar         1 YS4401   0.0000
    14 C14         13.6390    29.8680    -8.8930 C.ar         1 YS4401   0.0000
    15 C15         14.3890    28.8360    -8.3600 C.ar         1 YS4401   0.0000
    16 C10         15.4330    29.0410    -7.4610 C.ar         1 YS4401   0.0000
    17 C9          16.2020    27.8970    -6.9680 C.ar         1 YS4401   0.0000
    18 C6          16.1980    26.7360    -7.6190 C.ar         1 YS4401   0.0000
    19 C5          16.9220    25.6470    -7.0950 C.ar         1 YS4401   0.0000
    20 C8          16.9600    28.0090    -5.7980 C.ar         1 YS4401   0.0000
    21 C7          17.7000    26.9200    -5.2450 C.ar         1 YS4401   0.0000
    22 C4          17.6300    25.7040    -5.9010 C.ar         1 YS4401   0.0000
    23 O1          18.2850    24.5190    -5.4980 O.3          1 YS4401   0.0000
    24 C2          19.1730    24.6200    -4.4830 C.3          1 YS4401   0.0000
    25 C1          20.4070    25.3410    -4.9510 C.3          1 YS4401   0.0000
    26 C3          19.6270    23.1530    -4.3230 C.3          1 YS4401   0.0000
    27 H1          14.0094    33.7806    -8.5342 H            1 YS4401   0.0000
    28 H2          15.5821    32.8666    -6.3569 H            1 YS4401   0.0000
    29 H3          16.4475    30.5328    -6.4434 H            1 YS4401   0.0000
    30 H4          12.9172    29.6803    -9.5592 H            1 YS4401   0.0000
    31 H5          14.1718    27.8987    -8.6326 H            1 YS4401   0.0000
    32 H6          15.6858    26.6377    -8.4722 H            1 YS4401   0.0000
    33 H7          16.9265    24.7891    -7.6088 H            1 YS4401   0.0000
    34 H8          16.9849    28.8911    -5.3276 H            1 YS4401   0.0000
    35 H9          18.2475    27.0320    -4.4158 H            1 YS4401   0.0000
    36 H10         18.7798    25.0068    -3.6489 H            1 YS4401   0.0000
    37 H11         21.0584    25.4117    -4.1956 H            1 YS4401   0.0000
    38 H12         20.8243    24.8330    -5.7045 H            1 YS4401   0.0000
    39 H13         20.1589    26.2577    -5.2641 H            1 YS4401   0.0000
    40 H14         20.3003    23.0909    -3.5862 H            1 YS4401   0.0000
    41 H15         18.8367    22.5818    -4.1014 H            1 YS4401   0.0000
    42 H16         20.0381    22.8362    -5.1778 H            1 YS4401   0.0000
@<TRIPOS>BOND
     1    1    2      ar
     2    2    3      ar
     3    2    4      ar
     4    2    5       1
     5    5    6       1
     6    5   10       1
     7    6    7      ar
     8    6    8      ar
     9    6    9      ar
    10   10   11       1
    11   11   12      ar
    12   11   13      ar
    13   12   16      ar
    14   13   14      ar
    15   14   15      ar
    16   15   16      ar
    17   16   17       1
    18   17   18      ar
    19   17   20      ar
    20   18   19      ar
    21   19   22      ar
    22   20   21      ar
    23   21   22      ar
    24   22   23       1
    25   23   24       1
    26   24   25       1
    27   24   26       1
    28   26   42       1
    29   26   41       1
    30    5   27       1
    31   26   40       1
    32   25   39       1
    33   10   28       1
    34   12   29       1
    35   14   30       1
    36   15   31       1
    37   18   32       1
    38   19   33       1
    39   20   34       1
    40   21   35       1
    41   24   36       1
    42   25   37       1
    43   25   38       1
@<TRIPOS>SUBSTRUCTURE
     1 YS4401      1 GROUP             4 F     YS4     0 **** YS4 F 401
