@<TRIPOS>MOLECULE
4a7y_NHF_1_ligand
   21    21     1     0     0
SMALL
NO_CHARGES


@<TRIPOS>ATOM
     1 O4           9.4860   -21.8790    17.4530 O.3          1 NHF953   0.0000
     2 C6          10.5700   -24.4760    17.6740 C.3          1 NHF953   0.0000
     3 C5           9.1730   -24.2530    17.0970 C.3          1 NHF953   0.0000
     4 C4           8.6080   -22.9710    17.7470 C.3          1 NHF953   0.0000
     5 O3           6.4260   -22.5370    18.4660 O.3          1 NHF953   0.0000
     6 C3           7.1890   -22.6220    17.2860 C.3          1 NHF953   0.0000
     7 C2           6.5840   -23.7680    16.4690 C.2          1 NHF953   0.0000
     8 C1           6.9150   -25.0630    16.9530 C.3          1 NHF953   0.0000
     9 O2           5.8600   -23.5740    15.4610 O.2          1 NHF953   0.0000
    10 O6          11.4660   -23.5550    17.0490 O.3          1 NHF953   0.0000
    11 O5           8.3130   -25.3810    17.3490 O.3          1 NHF953   0.0000
    12 H1          10.4212   -22.2198    17.3569 H            1 NHF953   0.0000
    13 H2          10.8661   -25.4133    17.4902 H            1 NHF953   0.0000
    14 H3          10.5572   -24.3180    18.6614 H            1 NHF953   0.0000
    15 H4           9.2464   -24.1130    16.1096 H            1 NHF953   0.0000
    16 H5           8.5923   -23.1027    18.7382 H            1 NHF953   0.0000
    17 H6           5.4802   -22.7966    18.2708 H            1 NHF953   0.0000
    18 H7           7.1716   -21.7615    16.7769 H            1 NHF953   0.0000
    19 H8           6.6655   -25.7112    16.2335 H            1 NHF953   0.0000
    20 H9           6.3445   -25.2233    17.7585 H            1 NHF953   0.0000
    21 H10         12.2028   -23.3236    17.6842 H            1 NHF953   0.0000
@<TRIPOS>BOND
     1    1    4       1
     2    2    3       1
     3    2   10       1
     4    3    4       1
     5    3   11       1
     6    4    6       1
     7    5    6       1
     8    6    7       1
     9    7    8       1
    10    7    9       2
    11    8   11       1
    12    1   12       1
    13    2   13       1
    14    2   14       1
    15    3   15       1
    16    4   16       1
    17    5   17       1
    18    6   18       1
    19    8   19       1
    20    8   20       1
    21   10   21       1
@<TRIPOS>SUBSTRUCTURE
     1 NHF953      1 GROUP             4 A     NHF     0 **** NHF A 953
