@<TRIPOS>MOLECULE
4m9a_FDA_1_ligand
   84    89     1     0     0
SMALL
NO_CHARGES


@<TRIPOS>ATOM
     1 PA          -7.0050   -34.5540    32.7960 P.3          1 FDA401   0.0000
     2 O1A         -7.1500   -34.6710    31.2690 O.co2        1 FDA401   0.0000
     3 O2A         -7.2970   -35.7930    33.6640 O.co2        1 FDA401  -1.0000
     4 O5B         -5.4530   -34.0750    33.0700 O.3          1 FDA401   0.0000
     5 C5B         -4.8580   -34.0260    34.3850 C.3          1 FDA401   0.0000
     6 C4B         -3.4660   -33.4450    34.1700 C.3          1 FDA401   0.0000
     7 O4B         -2.6660   -34.3650    33.3980 O.3          1 FDA401   0.0000
     8 C3B         -3.4750   -32.1060    33.4130 C.3          1 FDA401   0.0000
     9 O3B         -2.4530   -31.1770    33.8600 O.3          1 FDA401   0.0000
    10 C2B         -3.1440   -32.4600    31.9860 C.3          1 FDA401   0.0000
    11 O2B         -2.5040   -31.3600    31.2990 O.3          1 FDA401   0.0000
    12 C1B         -2.2150   -33.6720    32.2130 C.3          1 FDA401   0.0000
    13 N9A         -2.2330   -34.5560    31.0360 N.pl3        1 FDA401   0.0000
    14 C8A         -3.2930   -35.3030    30.5300 C.2          1 FDA401   0.0000
    15 N7A         -2.9170   -35.9830    29.3970 N.2          1 FDA401   0.0000
    16 C5A         -1.5840   -35.6580    29.2090 C.ar         1 FDA401   0.0000
    17 C6A         -0.5000   -35.9920    28.2360 C.ar         1 FDA401   0.0000
    18 N6A         -0.8000   -36.8270    27.2290 N.pl3        1 FDA401   0.0000
    19 N1A          0.7510   -35.4290    28.3710 N.ar         1 FDA401   0.0000
    20 C2A          1.0500   -34.5740    29.3880 C.ar         1 FDA401   0.0000
    21 N3A          0.1410   -34.2020    30.3200 N.ar         1 FDA401   0.0000
    22 C4A         -1.1470   -34.7030    30.2750 C.ar         1 FDA401   0.0000
    23 N1         -15.6080   -29.1710    29.0290 N.2          1 FDA401   0.0000
    24 C2         -16.6880   -29.1470    28.1950 C.2          1 FDA401   0.0000
    25 O2         -16.8850   -30.1630    27.4790 O.2          1 FDA401   0.0000
    26 N3         -17.5120   -28.0690    28.0970 N.pl3        1 FDA401   0.0000
    27 C4         -17.2970   -26.9660    28.8430 C.2          1 FDA401   0.0000
    28 O4         -18.0540   -26.0050    28.7360 O.2          1 FDA401   0.0000
    29 C4X        -16.1430   -26.8890    29.7780 C.2          1 FDA401   0.0000
    30 N5         -15.8590   -25.8120    30.5900 N.2          1 FDA401   0.0000
    31 C5X        -15.1110   -26.0180    31.7100 C.ar         1 FDA401   0.0000
    32 C6         -15.1850   -25.1370    32.8100 C.ar         1 FDA401   0.0000
    33 C7         -14.4350   -25.3710    33.9700 C.ar         1 FDA401   0.0000
    34 C7M        -14.5170   -24.4390    35.1450 C.3          1 FDA401   0.0000
    35 C8         -13.5320   -26.5580    34.0530 C.ar         1 FDA401   0.0000
    36 C8M        -12.7360   -26.8330    35.3000 C.3          1 FDA401   0.0000
    37 C9         -13.4210   -27.4300    32.9630 C.ar         1 FDA401   0.0000
    38 C9A        -14.1950   -27.2120    31.7940 C.ar         1 FDA401   0.0000
    39 N10        -14.1520   -28.1100    30.6860 N.pl3        1 FDA401   0.0000
    40 C10        -15.2710   -28.1130    29.8060 C.2          1 FDA401   0.0000
    41 C1'        -13.3430   -29.3280    30.7720 C.3          1 FDA401   0.0000
    42 C2'        -11.8880   -28.9700    30.5440 C.3          1 FDA401   0.0000
    43 O2'        -11.7650   -28.8590    29.1170 O.3          1 FDA401   0.0000
    44 C3'        -11.0390   -30.0630    31.1900 C.3          1 FDA401   0.0000
    45 O3'        -10.9030   -29.7670    32.5870 O.3          1 FDA401   0.0000
    46 C4'         -9.6880   -30.1830    30.5160 C.3          1 FDA401   0.0000
    47 O4'         -9.9350   -30.8140    29.2060 O.3          1 FDA401   0.0000
    48 C5'         -8.7210   -31.0140    31.3930 C.3          1 FDA401   0.0000
    49 O5'         -9.3340   -32.3240    31.5970 O.3          1 FDA401   0.0000
    50 P           -9.4800   -33.0250    33.0770 P.3          1 FDA401   0.0000
    51 O1P         -9.9000   -31.9230    34.0330 O.co2        1 FDA401   0.0000
    52 O2P        -10.3460   -34.2760    32.7970 O.co2        1 FDA401  -1.0000
    53 O3P         -7.8850   -33.3070    33.3910 O.3          1 FDA401   0.0000
    54 H5B1        -4.7985   -34.9437    34.7777 H            1 FDA401   0.0000
    55 H5B2        -5.3939   -33.4382    34.9910 H            1 FDA401   0.0000
    56 H4B         -3.0321   -33.3091    35.0606 H            1 FDA401   0.0000
    57 H3B         -4.3790   -31.6817    33.4661 H            1 FDA401   0.0000
    58 H5          -2.8184   -30.6089    34.5974 H            1 FDA401   0.0000
    59 H2B         -3.9697   -32.7417    31.4973 H            1 FDA401   0.0000
    60 H7          -1.9845   -30.8137    31.9560 H            1 FDA401   0.0000
    61 H1B         -1.2818   -33.3448    32.3614 H            1 FDA401   0.0000
    62 H8A         -4.2058   -35.3398    30.9367 H            1 FDA401   0.0000
    63 H6A1        -0.1002   -37.0734    26.5585 H            1 FDA401   0.0000
    64 H6A2        -1.7233   -37.2027    27.1492 H            1 FDA401   0.0000
    65 H2A          1.9779   -34.2063    29.4489 H            1 FDA401   0.0000
    66 H13        -18.2861   -28.0946    27.4645 H            1 FDA401   0.0000
    67 H14        -15.7806   -24.3352    32.7608 H            1 FDA401   0.0000
    68 H7M1       -13.9156   -24.7672    35.8734 H            1 FDA401   0.0000
    69 H7M2       -14.2313   -23.5227    34.8643 H            1 FDA401   0.0000
    70 H7M3       -15.4588   -24.4066    35.4796 H            1 FDA401   0.0000
    71 H8M1       -12.1931   -27.6631    35.1726 H            1 FDA401   0.0000
    72 H8M2       -12.1270   -26.0614    35.4837 H            1 FDA401   0.0000
    73 H8M3       -13.3588   -26.9573    36.0724 H            1 FDA401   0.0000
    74 H21        -12.7947   -28.2083    33.0086 H            1 FDA401   0.0000
    75 H1'1       -13.6416   -29.9790    30.0741 H            1 FDA401   0.0000
    76 H1'2       -13.4495   -29.7382    31.6778 H            1 FDA401   0.0000
    77 H2'        -11.6858   -28.0884    30.9704 H            1 FDA401   0.0000
    78 H25        -11.0915   -29.5209    28.7880 H            1 FDA401   0.0000
    79 H3'        -11.5192   -30.9351    31.0957 H            1 FDA401   0.0000
    80 H27        -10.8085   -30.6197    33.1008 H            1 FDA401   0.0000
    81 H4'         -9.3057   -29.2696    30.3763 H            1 FDA401   0.0000
    82 H29        -10.3497   -31.7137    29.3423 H            1 FDA401   0.0000
    83 H5'1        -8.5825   -30.5605    32.2734 H            1 FDA401   0.0000
    84 H5'2        -7.8412   -31.1167    30.9289 H            1 FDA401   0.0000
@<TRIPOS>BOND
     1    1    2      ar
     2    1    3      ar
     3    1    4       1
     4    1   53       1
     5    4    5       1
     6    5    6       1
     7    6    7       1
     8    6    8       1
     9    7   12       1
    10    8    9       1
    11    8   10       1
    12   10   11       1
    13   10   12       1
    14   12   13       1
    15   13   14       1
    16   13   22       1
    17   14   15       2
    18   15   16       1
    19   16   17      ar
    20   16   22      ar
    21   17   18       1
    22   17   19      ar
    23   19   20      ar
    24   20   21      ar
    25   21   22      ar
    26   23   24       1
    27   23   40       2
    28   24   25       2
    29   24   26       1
    30   26   27       1
    31   27   28       2
    32   27   29       1
    33   29   30       2
    34   29   40       1
    35   30   31       1
    36   31   32      ar
    37   31   38      ar
    38   32   33      ar
    39   33   34       1
    40   33   35      ar
    41   35   36       1
    42   35   37      ar
    43   37   38      ar
    44   38   39       1
    45   39   40       1
    46   39   41       1
    47   41   42       1
    48   42   43       1
    49   42   44       1
    50   44   45       1
    51   44   46       1
    52   46   47       1
    53   46   48       1
    54   48   49       1
    55   49   50       1
    56   50   51      ar
    57   50   52      ar
    58   50   53       1
    59   48   84       1
    60    5   54       1
    61    5   55       1
    62    6   56       1
    63    8   57       1
    64    9   58       1
    65   10   59       1
    66   11   60       1
    67   12   61       1
    68   14   62       1
    69   18   63       1
    70   18   64       1
    71   20   65       1
    72   26   66       1
    73   32   67       1
    74   34   68       1
    75   34   69       1
    76   34   70       1
    77   36   71       1
    78   36   72       1
    79   36   73       1
    80   37   74       1
    81   41   75       1
    82   41   76       1
    83   42   77       1
    84   43   78       1
    85   44   79       1
    86   45   80       1
    87   46   81       1
    88   47   82       1
    89   48   83       1
@<TRIPOS>SUBSTRUCTURE
     1 FDA401      1 GROUP             4 B     FDA     0 **** FDA B 401
