@<TRIPOS>MOLECULE
./coach420/7dfr/ligand.pdb
 79 82 0 0 0
SMALL
GASTEIGER

@<TRIPOS>ATOM
      1  N1        17.0000   19.8950   37.7480 N.2   161  FOL161     -0.3476
      2  C2        17.4540   19.7640   38.9950 C.2   161  FOL161      0.3028
      3  NA2       16.7170   19.2520   39.9960 N.pl3 161  FOL161     -0.0763
      4  N3        18.7220   20.3010   39.3100 N.am  161  FOL161     -0.1279
      5  C4        19.5550   20.8820   38.4100 C.2   161  FOL161      0.2936
      6  O4        20.7390   21.2900   38.7000 O.2   161  FOL161     -0.2661
      7  C4A       19.0630   20.9250   37.0050 C.2   161  FOL161      0.1802
      8  N5        19.9150   21.3900   36.0300 N.2   161  FOL161     -0.2562
      9  C6        19.3860   21.4510   34.7970 C.3   161  FOL161      0.1660
     10  C7        18.0890   20.9620   34.6420 C.2   161  FOL161      0.1011
     11  N8        17.2920   20.4770   35.5190 N.2   161  FOL161     -0.2157
     12  C8A       17.8310   20.4880   36.7740 C.2   161  FOL161      0.2384
     13  C9        20.1780   21.9930   33.6600 C.3   161  FOL161      0.1425
     14  N10       21.6590   21.8200   33.8750 N.pl3 161  FOL161     -0.2351
     15  C11       23.7880   18.2930   34.4580 C.ar  161  FOL161      0.0551
     16  C12       24.4030   19.5210   34.4460 C.ar  161  FOL161      0.0059
     17  C13       23.7150   20.7060   34.2030 C.ar  161  FOL161      0.0162
     18  C14       22.3790   20.6250   34.0330 C.ar  161  FOL161      0.0654
     19  C15       21.7280   19.4170   33.9720 C.ar  161  FOL161      0.0162
     20  C16       22.4080   18.2110   34.2510 C.ar  161  FOL161      0.0059
     21  C         24.6690   17.1290   34.6470 C.2   161  FOL161      0.2652
     22  O         25.8860   17.1630   34.7330 O.2   161  FOL161     -0.2684
     23  N         24.0260   15.9890   34.6920 N.am  161  FOL161     -0.1918
     24  CA        24.8060   14.7170   34.9770 C.3   161  FOL161      0.1986
     25  CB        25.1130   14.7430   36.4890 C.3   161  FOL161      0.0451
     26  CG        26.5180   14.9480   37.1130 C.3   161  FOL161      0.1164
     27  CD        27.6630   15.6450   36.4090 C.2   161  FOL161      0.3649
     28  OE1       28.7110   14.8830   36.4000 O.co2 161  FOL161     -0.2457
     29  OE2       27.7200   16.7970   35.9120 O.co2 161  FOL161     -0.2457
     30  CT        23.9030   13.5790   34.5930 C.2   161  FOL161      0.3842
     31  O1        22.6310   13.6880   34.7230 O.co2 161  FOL161     -0.2437
     32  O2        24.4910   12.6010   34.1660 O.co2 161  FOL161     -0.2437
     33  O1A       15.6170   28.1310   27.5820 O.3   164  NAP164      0.0000
     34  O2A       17.8470   27.4870   28.2900 O.3   164  NAP164      0.0000
     35  O5B       17.6810   28.9110   26.0910 O.3   164  NAP164     -0.2176
     36  C5B       16.6790   29.5900   25.2440 C.3   164  NAP164      0.2142
     37  C4B       16.9300   29.4150   23.7560 C.3   164  NAP164      0.1830
     38  O4B       16.2190   28.5230   23.4380 O.3   164  NAP164     -0.3306
     39  C3B       16.5350   30.6110   22.8380 C.3   164  NAP164      0.2135
     40  O3B       17.6830   31.5010   22.6970 O.3   164  NAP164     -0.2176
     41  C2B       16.1950   29.8630   21.5750 C.3   164  NAP164      0.2081
     42  O2B       17.0590   29.7550   20.5570 O.3   164  NAP164     -0.2654
     43  C1B       15.7430   28.5680   22.0870 C.3   164  NAP164      0.2382
     44  N9A       14.2850   28.4100   22.1250 N.ar  164  NAP164     -0.2694
     45  C8A       13.5330   28.4540   23.2260 C.ar  164  NAP164      0.1816
     46  N7A       12.2570   28.2580   22.9130 N.ar  164  NAP164     -0.2193
     47  C5A       12.3430   28.0520   21.4790 C.ar  164  NAP164      0.1518
     48  C6A       11.3150   27.8250   20.3300 C.ar  164  NAP164      0.1919
     49  N6A        9.9750   27.6830   20.5600 N.pl3 164  NAP164     -0.1054
     50  N1A       11.7850   27.6360   19.0990 N.ar  164  NAP164     -0.2040
     51  C2A       13.1010   27.8720   18.9560 C.ar  164  NAP164      0.2016
     52  N3A       14.0800   28.1480   19.8020 N.ar  164  NAP164     -0.2048
     53  C4A       13.5970   28.1830   21.0770 C.ar  164  NAP164      0.1692
     54  O3        17.3530   29.8990   28.2110 O.2   164  NAP164     -0.2224
     55  PN        17.1590   30.8120   29.4960 P.3   164  NAP164      0.5327
     56  O1N       15.7290   30.9050   29.7440 O.3   164  NAP164     -0.1145
     57  O2N       18.0700   31.8270   29.6090 O.3   164  NAP164     -0.1145
     58  O5D       17.7360   29.6610   30.6480 O.3   164  NAP164     -0.2675
     59  C5D       19.2090   29.5050   30.8550 C.3   164  NAP164      0.1859
     60  C4D       19.5130   29.8020   32.3810 C.3   164  NAP164      0.1801
     61  O4D       18.6590   28.8770   33.1410 O.3   164  NAP164     -0.3327
     62  C3D       20.9480   29.3710   32.8520 C.3   164  NAP164      0.2158
     63  O3D       21.5420   30.0810   33.8560 O.3   164  NAP164     -0.2175
     64  C2D       20.7330   27.8730   33.2130 C.3   164  NAP164      0.2309
     65  O2D       21.8200   27.3140   33.8280 O.3   164  NAP164     -0.2158
     66  C1D       19.4810   27.9340   33.9120 C.3   164  NAP164      0.2263
     67  N1N       18.8380   26.5650   34.2000 N.pl3 164  NAP164     -0.2787
     68  C2N       18.4410   26.1790   35.4840 C.3   164  NAP164      0.1244
     69  C3N       17.8570   25.0190   35.7330 C.2   164  NAP164      0.0544
     70  C7N       17.6380   24.6750   37.1320 C.2   164  NAP164      0.2818
     71  O7N       16.9160   23.7070   37.4840 O.2   164  NAP164     -0.2670
     72  N7N       18.0090   25.5110   38.0920 N.am  164  NAP164     -0.0839
     73  C4N       17.3790   24.0620   34.5910 C.2   164  NAP164      0.0033
     74  C5N       17.8230   24.6640   33.2530 C.2   164  NAP164      0.0157
     75  C6N       18.4150   25.7960   33.1500 C.2   164  NAP164      0.0633
     76  P2B       18.2310   30.3660   19.8330 P.3   164  NAP164      0.5327
     77  O1X       18.7410   29.2920   18.8110 O.2   164  NAP164     -0.2224
     78  O2X       17.6590   31.5410   19.0820 O.3   164  NAP164     -0.1145
     79  O3X       19.4610   30.8260   20.5860 O.3   164  NAP164     -0.1145
@<TRIPOS>BOND
     1     1    12    2
     2     1     2    2
     3     2     4    1
     4     2     3    1
     5     4     5   am
     6     5     7    1
     7     5     6    2
     8     7     8    2
     9     7    12    1
    10     8     9    1
    11     9    13    1
    12     9    10    1
    13    10    11    2
    14    11    12    1
    15    13    14    1
    16    14    18    1
    17    15    20   ar
    18    15    16   ar
    19    15    21    1
    20    16    17   ar
    21    17    18   ar
    22    18    19   ar
    23    19    20   ar
    24    21    23   am
    25    21    22    2
    26    23    24    1
    27    24    30    1
    28    24    25    1
    29    25    26    1
    30    26    27    1
    31    27    29   ar
    32    27    28   ar
    33    30    32   ar
    34    30    31   ar
    35    35    36    1
    36    36    37    1
    37    37    39    1
    38    37    38    1
    39    38    43    1
    40    39    41    1
    41    39    40    1
    42    41    42    1
    43    41    43    1
    44    42    76    1
    45    43    44    1
    46    44    53   ar
    47    44    45   ar
    48    45    46   ar
    49    46    47   ar
    50    47    48   ar
    51    47    53   ar
    52    48    50   ar
    53    48    49    1
    54    50    51   ar
    55    51    52   ar
    56    52    53   ar
    57    54    55    2
    58    55    57    1
    59    55    56    1
    60    55    58    1
    61    58    59    1
    62    59    60    1
    63    60    62    1
    64    60    61    1
    65    61    66    1
    66    62    64    1
    67    62    63    1
    68    64    65    1
    69    64    66    1
    70    66    67    1
    71    67    75    1
    72    67    68    1
    73    68    69    1
    74    69    73    2
    75    69    70    1
    76    70    71    2
    77    70    72   am
    78    73    74    1
    79    74    75    2
    80    76    77    2
    81    76    78    1
    82    76    79    1
