@<TRIPOS>MOLECULE
5bvw_1N1_1_ligand
   60    63     1     0     0
SMALL
NO_CHARGES


@<TRIPOS>ATOM
     1 C1          19.1960    38.8680    35.3320 C.2          1 1N11009   0.0000
     2 C2          19.3360    38.1130    36.4430 C.2          1 1N11009   0.0000
     3 C3          20.5260    37.4820    37.0470 C.2          1 1N11009   0.0000
     4 N6           8.4830    39.1300    37.3220 N.4          1 1N11009   1.0000
     5 C7          25.4530    36.2640    37.6950 C.ar         1 1N11009   0.0000
     6 C8          25.1540    37.5860    37.9910 C.ar         1 1N11009   0.0000
     7 C9          23.9160    38.1300    37.6460 C.ar         1 1N11009   0.0000
     8 C10         23.6040    39.5660    37.9890 C.3          1 1N11009   0.0000
     9 C11         14.7800    38.7120    36.8710 C.ar         1 1N11009   0.0000
    10 C12         13.4910    39.2640    36.8400 C.ar         1 1N11009   0.0000
    11 C13         12.5890    38.7810    37.8020 C.ar         1 1N11009   0.0000
    12 C14         14.1820    37.3610    38.6400 C.ar         1 1N11009   0.0000
    13 C15         14.5810    36.3130    39.6250 C.3          1 1N11009   0.0000
    14 C16         10.3670    38.4460    38.7100 C.3          1 1N11009   0.0000
    15 C19         10.7180    39.8080    36.6260 C.3          1 1N11009   0.0000
    16 C20          7.0400    39.3770    37.2460 C.3          1 1N11009   0.0000
    17 C21          6.2190    38.1420    37.5430 C.3          1 1N11009   0.0000
    18 N           15.7610    39.1000    35.9670 N.pl3        1 1N11009   0.0000
    19 C           17.0920    38.8290    35.9860 C.2          1 1N11009   0.0000
    20 N1          17.9100    39.2780    35.0760 N.2          1 1N11009   0.0000
    21 S           17.8310    37.8690    37.2230 S.3          1 1N11009   0.0000
    22 N2          21.7330    37.8620    36.5650 N.am         1 1N11009   0.0000
    23 C4          23.0010    37.3290    36.9590 C.ar         1 1N11009   0.0000
    24 C5          23.3100    36.0020    36.6830 C.ar         1 1N11009   0.0000
    25 C6          24.5330    35.4680    37.0400 C.ar         1 1N11009   0.0000
    26 CL          22.1700    35.0020    35.8430 Cl           1 1N11009   0.0000
    27 O           20.4150    36.6530    37.9450 O.2          1 1N11009   0.0000
    28 N3          12.9310    37.8250    38.6880 N.ar         1 1N11009   0.0000
    29 N4          15.1030    37.7640    37.7700 N.ar         1 1N11009   0.0000
    30 N5          11.2710    39.2600    37.8770 N.pl3        1 1N11009   0.0000
    31 C17          8.9330    38.9440    38.6990 C.3          1 1N11009   0.0000
    32 C18          9.2620    40.2230    36.7460 C.3          1 1N11009   0.0000
    33 O1           4.8500    38.4880    37.6920 O.3          1 1N11009   0.0000
    34 H1          19.9670    39.1094    34.7427 H            1 1N11009   0.0000
    35 H2          26.3403    35.8847    37.9574 H            1 1N11009   0.0000
    36 H3          25.8323    38.1548    38.4562 H            1 1N11009   0.0000
    37 H4          22.6825    39.7916    37.6728 H            1 1N11009   0.0000
    38 H5          23.6564    39.6910    38.9798 H            1 1N11009   0.0000
    39 H6          24.2663    40.1670    37.5417 H            1 1N11009   0.0000
    40 H7          13.2295    39.9607    36.1720 H            1 1N11009   0.0000
    41 H8          15.5369    36.0608    39.4746 H            1 1N11009   0.0000
    42 H9          14.4723    36.6692    40.5531 H            1 1N11009   0.0000
    43 H10         14.0011    35.5069    39.5073 H            1 1N11009   0.0000
    44 H11         10.7019    38.4625    39.6521 H            1 1N11009   0.0000
    45 H12         10.3797    37.5063    38.3681 H            1 1N11009   0.0000
    46 H13         10.7918    39.1102    35.9135 H            1 1N11009   0.0000
    47 H14         11.2563    40.6093    36.3648 H            1 1N11009   0.0000
    48 H15          6.8181    39.6944    36.3241 H            1 1N11009   0.0000
    49 H16          6.8017    40.0865    37.9092 H            1 1N11009   0.0000
    50 H17          6.5477    37.7223    38.3891 H            1 1N11009   0.0000
    51 H18          6.3154    37.4920    36.7892 H            1 1N11009   0.0000
    52 H19         15.4441    39.6543    35.1974 H            1 1N11009   0.0000
    53 H20         21.7387    38.5810    35.8700 H            1 1N11009   0.0000
    54 H21         24.7502    34.5155    36.8266 H            1 1N11009   0.0000
    55 H22          8.3455    38.2736    39.1523 H            1 1N11009   0.0000
    56 H23          8.8809    39.8160    39.1857 H            1 1N11009   0.0000
    57 H24          9.1934    41.0270    37.3366 H            1 1N11009   0.0000
    58 H25          8.9038    40.4442    35.8389 H            1 1N11009   0.0000
    59 H26          4.5180    38.9064    36.8466 H            1 1N11009   0.0000
    60 H27          8.6862    38.2955    36.8098 H            1 1N11009   0.0000
@<TRIPOS>BOND
     1    1    2       2
     2    1   20       1
     3    2    3       1
     4    2   21       1
     5    3   22      am
     6    3   27       2
     7    4   16       1
     8    4   31       1
     9    4   32       1
    10    5    6      ar
    11    5   25      ar
    12    6    7      ar
    13    7    8       1
    14    7   23      ar
    15    9   10      ar
    16    9   18       1
    17    9   29      ar
    18   10   11      ar
    19   11   28      ar
    20   11   30       1
    21   12   13       1
    22   12   28      ar
    23   12   29      ar
    24   14   30       1
    25   14   31       1
    26   15   30       1
    27   15   32       1
    28   16   17       1
    29   17   33       1
    30   18   19       1
    31   19   20       2
    32   19   21       1
    33   22   23       1
    34   23   24      ar
    35   24   25      ar
    36   24   26       1
    37    1   34       1
    38    5   35       1
    39    6   36       1
    40    8   37       1
    41    8   38       1
    42    8   39       1
    43   10   40       1
    44   13   41       1
    45   13   42       1
    46   13   43       1
    47   14   44       1
    48   14   45       1
    49   15   46       1
    50   15   47       1
    51   16   48       1
    52   16   49       1
    53   17   50       1
    54   17   51       1
    55   18   52       1
    56   22   53       1
    57   25   54       1
    58   31   55       1
    59   31   56       1
    60   32   57       1
    61   32   58       1
    62   33   59       1
    63    4   60       1
@<TRIPOS>SUBSTRUCTURE
     1 1N11009     1 GROUP             4 A     1N1     0 **** 1N1 A1009
