@<TRIPOS>MOLECULE
5jjs_SAH_1_ligand
   46    48     1     0     0
SMALL
NO_CHARGES


@<TRIPOS>ATOM
     1 N           24.8390   134.4060    20.2350 N.4          1 SAH1009   1.0000
     2 CA          26.1510   134.5370    19.5980 C.3          1 SAH1009   0.0000
     3 CB          26.1620   134.0280    18.1370 C.3          1 SAH1009   0.0000
     4 CG          26.4880   132.5390    18.1710 C.3          1 SAH1009   0.0000
     5 SD          25.7500   131.7990    16.6840 S.3          1 SAH1009   0.0000
     6 C           26.7360   135.9490    19.7320 C.2          1 SAH1009   0.0000
     7 O           28.0040   136.1250    19.3830 O.co2        1 SAH1009   0.0000
     8 OXT         25.9950   136.8440    20.1870 O.co2        1 SAH1009  -1.0000
     9 C5'         25.6170   130.0420    17.1190 C.3          1 SAH1009   0.0000
    10 C4'         26.9440   129.4260    17.5190 C.3          1 SAH1009   0.0000
    11 O4'         26.7560   128.0620    17.9460 O.3          1 SAH1009   0.0000
    12 C3'         28.0660   129.4100    16.4750 C.3          1 SAH1009   0.0000
    13 O3'         29.1310   130.2450    16.9070 O.3          1 SAH1009   0.0000
    14 C2'         28.5000   127.9350    16.4060 C.3          1 SAH1009   0.0000
    15 O2'         29.9030   127.7280    16.2700 O.3          1 SAH1009   0.0000
    16 C1'         27.9680   127.3820    17.7230 C.3          1 SAH1009   0.0000
    17 N9          27.6770   125.9530    17.7120 N.pl3        1 SAH1009   0.0000
    18 C8          27.1100   125.2290    16.6940 C.2          1 SAH1009   0.0000
    19 N7          26.8790   123.9740    16.9950 N.2          1 SAH1009   0.0000
    20 C5          27.3320   123.8610    18.3010 C.ar         1 SAH1009   0.0000
    21 C6          27.3630   122.7830    19.2000 C.ar         1 SAH1009   0.0000
    22 N6          27.1560   121.5240    18.8280 N.pl3        1 SAH1009   0.0000
    23 N1          27.7860   123.0280    20.4630 N.ar         1 SAH1009   0.0000
    24 C2          28.2320   124.2510    20.7680 C.ar         1 SAH1009   0.0000
    25 N3          28.3160   125.3300    19.9810 N.ar         1 SAH1009   0.0000
    26 C4          27.8250   125.0730    18.7570 C.ar         1 SAH1009   0.0000
    27 H1          24.9160   133.8155    21.0383 H            1 SAH1009   0.0000
    28 H2          24.5128   135.3089    20.5150 H            1 SAH1009   0.0000
    29 HA          26.7661   133.9337    20.1055 H            1 SAH1009   0.0000
    30 HB1         26.8571   134.5175    17.6105 H            1 SAH1009   0.0000
    31 HB2         25.2649   134.1714    17.7190 H            1 SAH1009   0.0000
    32 HG1         26.0989   132.1210    18.9919 H            1 SAH1009   0.0000
    33 HG2         27.4789   132.4042    18.1660 H            1 SAH1009   0.0000
    34 H5'1        25.2607   129.5444    16.3282 H            1 SAH1009   0.0000
    35 H5'2        24.9802   129.9510    17.8847 H            1 SAH1009   0.0000
    36 H4'         27.2819   129.9388    18.3082 H            1 SAH1009   0.0000
    37 H3'         27.7213   129.7146    15.5871 H            1 SAH1009   0.0000
    38 H12         29.7784   129.7070    17.4468 H            1 SAH1009   0.0000
    39 H2'         28.0267   127.4883    15.6468 H            1 SAH1009   0.0000
    40 H14         30.0675   126.8808    15.7648 H            1 SAH1009   0.0000
    41 H1'         28.6113   127.5893    18.4600 H            1 SAH1009   0.0000
    42 H16         26.8921   125.6236    15.8013 H            1 SAH1009   0.0000
    43 H17         27.1885   120.7903    19.5067 H            1 SAH1009   0.0000
    44 H18         26.9677   121.3104    17.8694 H            1 SAH1009   0.0000
    45 H19         28.5444   124.3760    21.7097 H            1 SAH1009   0.0000
    46 H20         24.1923   134.0042    19.5867 H            1 SAH1009   0.0000
@<TRIPOS>BOND
     1    1    2       1
     2    2    3       1
     3    2    6       1
     4    3    4       1
     5    4    5       1
     6    5    9       1
     7    6    7      ar
     8    6    8      ar
     9    9   10       1
    10   10   11       1
    11   10   12       1
    12   11   16       1
    13   12   13       1
    14   12   14       1
    15   14   15       1
    16   14   16       1
    17   16   17       1
    18   17   18       1
    19   17   26       1
    20   18   19       2
    21   19   20       1
    22   20   21      ar
    23   20   26      ar
    24   21   22       1
    25   21   23      ar
    26   23   24      ar
    27   24   25      ar
    28   25   26      ar
    29    1   27       1
    30    1   28       1
    31    2   29       1
    32    3   30       1
    33    3   31       1
    34    4   32       1
    35    4   33       1
    36    1   46       1
    37    9   34       1
    38    9   35       1
    39   10   36       1
    40   12   37       1
    41   13   38       1
    42   14   39       1
    43   15   40       1
    44   16   41       1
    45   18   42       1
    46   22   43       1
    47   22   44       1
    48   24   45       1
@<TRIPOS>SUBSTRUCTURE
     1 SAH1009     1 GROUP             4 A     SAH     0 **** SAH A1009
