@<TRIPOS>MOLECULE
4b79_NAD_2_ligand
   70    74     1     0     0
SMALL
NO_CHARGES


@<TRIPOS>ATOM
     1 PA         -18.2470   -22.7370     8.0230 P.3          1 NAD1242   0.0000
     2 O1A        -18.2910   -21.7150     6.9080 O.co2        1 NAD1242   0.0000
     3 O2A        -19.4670   -23.2660     8.7120 O.co2        1 NAD1242  -1.0000
     4 O5B        -17.2910   -22.1140     9.1560 O.3          1 NAD1242   0.0000
     5 C5B        -16.1220   -21.3760     8.8140 C.3          1 NAD1242   0.0000
     6 C4B        -15.5980   -20.6530    10.0530 C.3          1 NAD1242   0.0000
     7 O4B        -14.3850   -19.9550     9.7130 O.3          1 NAD1242   0.0000
     8 C3B        -16.5870   -19.6140    10.5740 C.3          1 NAD1242   0.0000
     9 O3B        -16.6030   -19.5610    12.0090 O.3          1 NAD1242   0.0000
    10 C2B        -16.0490   -18.3300     9.9680 C.3          1 NAD1242   0.0000
    11 O2B        -16.4980   -17.1400    10.6240 O.3          1 NAD1242   0.0000
    12 C1B        -14.5570   -18.5950    10.0940 C.3          1 NAD1242   0.0000
    13 N9A        -13.8060   -17.6170     9.2950 N.pl3        1 NAD1242   0.0000
    14 C8A        -13.8700   -17.3940     7.9660 C.2          1 NAD1242   0.0000
    15 N7A        -13.0470   -16.3760     7.6220 N.2          1 NAD1242   0.0000
    16 C5A        -12.4730   -15.9300     8.7570 C.ar         1 NAD1242   0.0000
    17 C6A        -11.5190   -14.8720     9.1270 C.ar         1 NAD1242   0.0000
    18 N6A        -11.0090   -14.0800     8.1750 N.pl3        1 NAD1242   0.0000
    19 N1A        -11.1810   -14.7420    10.4240 N.ar         1 NAD1242   0.0000
    20 C2A        -11.6890   -15.5390    11.3830 C.ar         1 NAD1242   0.0000
    21 N3A        -12.5630   -16.5320    11.1150 N.ar         1 NAD1242   0.0000
    22 C4A        -12.9770   -16.7550     9.8510 C.ar         1 NAD1242   0.0000
    23 O3         -17.3920   -23.9450     7.4240 O.3          1 NAD1242   0.0000
    24 PN         -17.0380   -25.3680     8.0670 P.3          1 NAD1242   0.0000
    25 O1N        -17.4130   -25.4850     9.5240 O.co2        1 NAD1242   0.0000
    26 O2N        -17.5040   -26.4100     7.0950 O.co2        1 NAD1242  -1.0000
    27 O5D        -15.4470   -25.3300     7.8690 O.3          1 NAD1242   0.0000
    28 C5D        -14.5040   -25.3430     8.9220 C.3          1 NAD1242   0.0000
    29 C4D        -13.2280   -26.0260     8.4480 C.3          1 NAD1242   0.0000
    30 O4D        -13.4920   -27.3940     8.0610 O.3          1 NAD1242   0.0000
    31 C3D        -12.5890   -25.3320     7.2520 C.3          1 NAD1242   0.0000
    32 O3D        -11.1480   -25.2590     7.3940 O.3          1 NAD1242   0.0000
    33 C2D        -12.9640   -26.2680     6.1120 C.3          1 NAD1242   0.0000
    34 O2D        -12.0860   -26.1840     4.9960 O.3          1 NAD1242   0.0000
    35 C1D        -12.8900   -27.6270     6.7840 C.3          1 NAD1242   0.0000
    36 N1N        -13.5940   -28.6730     6.0310 N.ar         1 NAD1242   1.0000
    37 C2N        -14.9450   -28.6440     5.9340 C.ar         1 NAD1242   0.0000
    38 C3N        -15.6220   -29.6360     5.2320 C.ar         1 NAD1242   0.0000
    39 C7N        -17.1180   -29.6450     5.0850 C.2          1 NAD1242   0.0000
    40 O7N        -17.6240   -30.5190     4.4030 O.2          1 NAD1242   0.0000
    41 N7N        -17.8800   -28.7300     5.6760 N.am         1 NAD1242   0.0000
    42 C4N        -14.8900   -30.6610     4.6270 C.ar         1 NAD1242   0.0000
    43 C5N        -13.5130   -30.6680     4.7340 C.ar         1 NAD1242   0.0000
    44 C6N        -12.8780   -29.6480     5.4490 C.ar         1 NAD1242   0.0000
    45 H5B1       -16.3457   -20.7058     8.1063 H            1 NAD1242   0.0000
    46 H5B2       -15.4210   -22.0014     8.4712 H            1 NAD1242   0.0000
    47 H4B        -15.4072   -21.3209    10.7723 H            1 NAD1242   0.0000
    48 H3B        -17.5045   -19.8038    10.2245 H            1 NAD1242   0.0000
    49 H5         -17.2611   -18.8708    12.3098 H            1 NAD1242   0.0000
    50 H2B        -16.2983   -18.2898     9.0004 H            1 NAD1242   0.0000
    51 H7         -17.4062   -17.2959    11.0124 H            1 NAD1242   0.0000
    52 H1B        -14.2935   -18.4951    11.0535 H            1 NAD1242   0.0000
    53 H8A        -14.4431   -17.9070     7.3270 H            1 NAD1242   0.0000
    54 H6A1       -10.3603   -13.3591     8.4189 H            1 NAD1242   0.0000
    55 H6A2       -11.2769   -14.2096     7.2203 H            1 NAD1242   0.0000
    56 H2A        -11.4077   -15.3894    12.3309 H            1 NAD1242   0.0000
    57 H5D1       -14.8808   -25.8435     9.7015 H            1 NAD1242   0.0000
    58 H5D2       -14.2977   -24.4040     9.1970 H            1 NAD1242   0.0000
    59 H4D        -12.5708   -26.0300     9.2017 H            1 NAD1242   0.0000
    60 H3D        -12.9819   -24.4229     7.1132 H            1 NAD1242   0.0000
    61 H17        -10.9201   -24.7436     8.2201 H            1 NAD1242   0.0000
    62 H2D        -13.9026   -26.0857     5.8190 H            1 NAD1242   0.0000
    63 H19        -12.3870   -26.8210     4.2863 H            1 NAD1242   0.0000
    64 H1D        -11.9328   -27.8888     6.9071 H            1 NAD1242   0.0000
    65 H2N        -15.4587   -27.9049     6.3697 H            1 NAD1242   0.0000
    66 H7N1       -18.8732   -28.7576     5.5628 H            1 NAD1242   0.0000
    67 H7N2       -17.4600   -28.0141     6.2338 H            1 NAD1242   0.0000
    68 H4N        -15.3596   -31.3841     4.1204 H            1 NAD1242   0.0000
    69 H5N        -12.9762   -31.3944     4.3049 H            1 NAD1242   0.0000
    70 H6N        -11.8811   -29.6448     5.5276 H            1 NAD1242   0.0000
@<TRIPOS>BOND
     1    1    2      ar
     2    1    3      ar
     3    1    4       1
     4    1   23       1
     5    4    5       1
     6    5    6       1
     7    6    7       1
     8    6    8       1
     9    7   12       1
    10    8    9       1
    11    8   10       1
    12   10   11       1
    13   10   12       1
    14   12   13       1
    15   13   14       1
    16   13   22       1
    17   14   15       2
    18   15   16       1
    19   16   17      ar
    20   16   22      ar
    21   17   18       1
    22   17   19      ar
    23   19   20      ar
    24   20   21      ar
    25   21   22      ar
    26   23   24       1
    27   24   25      ar
    28   24   26      ar
    29   24   27       1
    30   27   28       1
    31   28   29       1
    32   29   30       1
    33   29   31       1
    34   30   35       1
    35   31   32       1
    36   31   33       1
    37   33   34       1
    38   33   35       1
    39   35   36       1
    40   36   37      ar
    41   36   44      ar
    42   37   38      ar
    43   38   39       1
    44   38   42      ar
    45   39   40       2
    46   39   41      am
    47   42   43      ar
    48   43   44      ar
    49   44   70       1
    50    5   45       1
    51    5   46       1
    52    6   47       1
    53    8   48       1
    54    9   49       1
    55   10   50       1
    56   11   51       1
    57   12   52       1
    58   14   53       1
    59   18   54       1
    60   18   55       1
    61   20   56       1
    62   43   69       1
    63   28   57       1
    64   28   58       1
    65   29   59       1
    66   31   60       1
    67   32   61       1
    68   33   62       1
    69   34   63       1
    70   35   64       1
    71   37   65       1
    72   41   66       1
    73   41   67       1
    74   42   68       1
@<TRIPOS>SUBSTRUCTURE
     1 NAD1242     1 GROUP             4 B     NAD     0 **** NAD B1242
