@<TRIPOS>MOLECULE
5c3q_TDR_3_ligand
   15    15     1     0     0
SMALL
NO_CHARGES


@<TRIPOS>ATOM
     1 N1         -11.3240    66.0310    20.6330 N.pl3        1 TDR403   0.0000
     2 C2         -12.7580    66.1800    20.5300 C.2          1 TDR403   0.0000
     3 O2         -13.2200    67.0680    19.8310 O.2          1 TDR403   0.0000
     4 N3         -13.6340    65.2770    21.2480 N.pl3        1 TDR403   0.0000
     5 C4         -13.0890    64.2310    22.0620 C.2          1 TDR403   0.0000
     6 O4         -13.8450    63.4830    22.6550 O.2          1 TDR403   0.0000
     7 C5         -11.6290    64.0730    22.1720 C.2          1 TDR403   0.0000
     8 CM5        -10.9920    63.0070    23.0010 C.3          1 TDR403   0.0000
     9 C6         -10.7600    64.9990    21.4400 C.2          1 TDR403   0.0000
    10 H1         -10.7230    66.6560    20.1349 H            1 TDR403   0.0000
    11 H2         -14.6256    65.3842    21.1752 H            1 TDR403   0.0000
    12 HM51        -9.9971    63.0818    22.9331 H            1 TDR403   0.0000
    13 HM52       -11.2701    63.1161    23.9553 H            1 TDR403   0.0000
    14 HM53       -11.2822    62.1092    22.6698 H            1 TDR403   0.0000
    15 H6          -9.7665    64.9067    21.5067 H            1 TDR403   0.0000
@<TRIPOS>BOND
     1    1    2       1
     2    1    9       1
     3    2    3       2
     4    2    4       1
     5    4    5       1
     6    5    6       2
     7    5    7       1
     8    7    8       1
     9    7    9       2
    10    1   10       1
    11    4   11       1
    12    8   12       1
    13    8   13       1
    14    8   14       1
    15    9   15       1
@<TRIPOS>SUBSTRUCTURE
     1 TDR403      1 GROUP             4 C     TDR     0 **** TDR C 403
