@<TRIPOS>MOLECULE
1a8t_061_1_ligand
   57    61     1     0     0
SMALL
NO_CHARGES


@<TRIPOS>ATOM
     1 N1          10.4920    33.9750    -1.5560 N.2          1 061250   0.0000
     2 N2           9.6690    33.6680    -0.5770 N.2          1 061250   0.0000
     3 N3           8.4590    33.9100    -0.9930 N.2          1 061250   0.0000
     4 N4           8.4650    34.4360    -2.2430 N.pl3        1 061250  -1.0000
     5 C5           9.7920    34.4220    -2.6130 C.2          1 061250   0.0000
     6 C6          10.1830    34.9240    -3.9430 C.ar         1 061250   0.0000
     7 C7           9.6640    36.1720    -4.3950 C.ar         1 061250   0.0000
     8 C8           9.9590    36.6490    -5.6660 C.ar         1 061250   0.0000
     9 C9          10.7720    35.8980    -6.5070 C.ar         1 061250   0.0000
    10 C10         11.2760    34.6670    -6.0980 C.ar         1 061250   0.0000
    11 C11         10.9840    34.1870    -4.8040 C.ar         1 061250   0.0000
    12 C12          8.7970    36.9280    -3.4570 C.ar         1 061250   0.0000
    13 C13          9.1280    38.2220    -3.0510 C.ar         1 061250   0.0000
    14 C14          8.3400    38.8700    -2.0700 C.ar         1 061250   0.0000
    15 C15          7.2470    38.1860    -1.5280 C.ar         1 061250   0.0000
    16 C16          6.9400    36.8850    -1.9420 C.ar         1 061250   0.0000
    17 C17          7.7450    36.2030    -2.8620 C.ar         1 061250   0.0000
    18 C18          6.2950    38.7460    -0.5040 C.3          1 061250   0.0000
    19 N19          6.5650    39.9430     0.2700 N.pl3        1 061250   0.0000
    20 C20          6.4490    41.1680    -0.2790 C.2          1 061250   0.0000
    21 C21          6.1310    41.3730    -1.7290 C.3          1 061250   0.0000
    22 C22          5.1110    40.5150    -2.4110 C.3          1 061250   0.0000
    23 C23          5.2210    40.5350    -3.9360 C.3          1 061250   0.0000
    24 C24          4.8280    41.9400    -4.4830 C.3          1 061250   0.0000
    25 N25          6.6440    42.2600     0.4240 N.2          1 061250   0.0000
    26 C26          6.9420    42.2480     1.7170 C.ar         1 061250   0.0000
    27 C27          7.0620    43.4360     2.4530 C.ar         1 061250   0.0000
    28 C28          7.3890    43.3710     3.8120 C.ar         1 061250   0.0000
    29 C29          7.5410    42.1300     4.4650 C.ar         1 061250   0.0000
    30 O30          7.8420    42.1300     5.8070 O.3          1 061250   0.0000
    31 C31          7.3860    40.9420     3.7410 C.ar         1 061250   0.0000
    32 C32          7.0970    41.0100     2.3750 C.ar         1 061250   0.0000
    33 C33          6.8940    39.8000     1.5480 C.2          1 061250   0.0000
    34 O34          6.9820    38.7030     2.0640 O.2          1 061250   0.0000
    35 H1           9.5893    37.5258    -5.9735 H            1 061250   0.0000
    36 H2          10.9974    36.2465    -7.4168 H            1 061250   0.0000
    37 H3          11.8427    34.1251    -6.7186 H            1 061250   0.0000
    38 H4          11.3571    33.3088    -4.5048 H            1 061250   0.0000
    39 H5           9.9171    38.6883    -3.4509 H            1 061250   0.0000
    40 H6           8.5603    39.7983    -1.7704 H            1 061250   0.0000
    41 H7           6.1281    36.4328    -1.5727 H            1 061250   0.0000
    42 H8           7.5807    35.2427    -3.0874 H            1 061250   0.0000
    43 H9           6.1510    38.0155     0.1636 H            1 061250   0.0000
    44 H10          5.4410    38.9236    -0.9931 H            1 061250   0.0000
    45 H11          6.9880    41.2529    -2.2302 H            1 061250   0.0000
    46 H12          5.8195    42.3185    -1.8233 H            1 061250   0.0000
    47 H13          4.2008    40.8405    -2.1547 H            1 061250   0.0000
    48 H14          5.2287    39.5728    -2.0972 H            1 061250   0.0000
    49 H15          4.6064    39.8465    -4.3210 H            1 061250   0.0000
    50 H16          6.1623    40.3278    -4.2024 H            1 061250   0.0000
    51 H17          4.9032    41.9425    -5.4802 H            1 061250   0.0000
    52 H18          3.8863    42.1489    -4.2192 H            1 061250   0.0000
    53 H19          5.4422    42.6303    -4.1007 H            1 061250   0.0000
    54 H20          6.9153    44.3208     2.0108 H            1 061250   0.0000
    55 H21          7.5169    44.2177     4.3284 H            1 061250   0.0000
    56 H22          7.9551    41.2640     6.2941 H            1 061250   0.0000
    57 H23          7.4808    40.0561     4.1951 H            1 061250   0.0000
@<TRIPOS>BOND
     1    1    2       1
     2    1    5       2
     3    2    3       2
     4    3    4       1
     5    4    5       1
     6    5    6       1
     7    6    7      ar
     8    6   11      ar
     9    7    8      ar
    10    7   12       1
    11    8    9      ar
    12    9   10      ar
    13   10   11      ar
    14   12   13      ar
    15   12   17      ar
    16   13   14      ar
    17   14   15      ar
    18   15   16      ar
    19   15   18       1
    20   16   17      ar
    21   18   19       1
    22   19   20       1
    23   19   33       1
    24   20   21       1
    25   20   25       2
    26   21   22       1
    27   22   23       1
    28   23   24       1
    29   25   26       1
    30   26   27      ar
    31   26   32      ar
    32   27   28      ar
    33   28   29      ar
    34   29   30       1
    35   29   31      ar
    36   31   32      ar
    37   32   33       1
    38   33   34       2
    39   31   57       1
    40    8   35       1
    41    9   36       1
    42   10   37       1
    43   11   38       1
    44   13   39       1
    45   14   40       1
    46   16   41       1
    47   17   42       1
    48   18   43       1
    49   18   44       1
    50   21   45       1
    51   21   46       1
    52   22   47       1
    53   22   48       1
    54   23   49       1
    55   23   50       1
    56   24   51       1
    57   24   52       1
    58   24   53       1
    59   27   54       1
    60   28   55       1
    61   30   56       1
@<TRIPOS>SUBSTRUCTURE
     1 061250      1 GROUP             4 A     061     0 **** 061 A 250
