@<TRIPOS>MOLECULE
1peo_DCP_1_ligand
   40    41     1     0     0
SMALL
NO_CHARGES


@<TRIPOS>ATOM
     1 N1          -0.5230    17.9010   149.7630 N.pl3        1 DCP716   0.0000
     2 C2           0.7220    18.2770   150.2360 C.2          1 DCP716   0.0000
     3 N3           1.2030    17.9890   151.5180 N.2          1 DCP716   0.0000
     4 C4           0.3590    17.2770   152.3460 C.2          1 DCP716   0.0000
     5 C5          -0.9050    16.8800   151.9470 C.2          1 DCP716   0.0000
     6 C6          -1.3510    17.2020   150.6280 C.2          1 DCP716   0.0000
     7 O2           1.4810    18.8760   149.5790 O.2          1 DCP716   0.0000
     8 N4           0.7600    16.9930   153.5140 N.pl3        1 DCP716   0.0000
     9 C1'         -1.0360    18.2320   148.4420 C.3          1 DCP716   0.0000
    10 C2'         -0.9710    17.2030   147.3190 C.3          1 DCP716   0.0000
    11 C3'         -2.2480    17.3050   146.4800 C.3          1 DCP716   0.0000
    12 C4'         -3.1630    18.1240   147.3260 C.3          1 DCP716   0.0000
    13 O4'         -2.4100    18.5850   148.4550 O.3          1 DCP716   0.0000
    14 O3'         -2.2220    17.9970   145.2300 O.3          1 DCP716   0.0000
    15 C5'         -4.2920    17.2150   147.7420 C.3          1 DCP716   0.0000
    16 O5'         -3.8380    16.1040   148.5180 O.3          1 DCP716   0.0000
    17 PA          -5.0210    15.1830   149.0940 P.3          1 DCP716   0.0000
    18 O1A         -4.4670    13.8330   149.5560 O.co2        1 DCP716   0.0000
    19 O2A         -6.3300    15.2780   148.3260 O.co2        1 DCP716  -1.0000
    20 O3A         -5.4170    16.0950   150.3390 O.3          1 DCP716   0.0000
    21 PB          -6.7600    15.7650   151.1430 P.3          1 DCP716   0.0000
    22 O1B         -7.7830    15.1540   150.2290 O.co2        1 DCP716   0.0000
    23 O2B         -6.4160    15.2510   152.5180 O.co2        1 DCP716  -1.0000
    24 O3B         -7.1170    17.2620   151.4980 O.3          1 DCP716   0.0000
    25 PG          -8.2380    17.9570   150.6350 P.3          1 DCP716   0.0000
    26 O1G         -9.4110    17.0700   150.8980 O.co2        1 DCP716   0.0000
    27 O2G         -7.9840    19.2200   151.3540 O.co2        1 DCP716  -1.0000
    28 O3G         -7.8850    18.1110   149.2060 O.co2        1 DCP716  -1.0000
    29 H1          -1.4985    16.3745   152.5732 H            1 DCP716   0.0000
    30 H2          -2.2630    16.9223   150.3280 H            1 DCP716   0.0000
    31 H3           0.1684    16.4780   154.1343 H            1 DCP716   0.0000
    32 H4           1.6680    17.2839   153.8154 H            1 DCP716   0.0000
    33 H1'         -0.5323    19.0368   148.1280 H            1 DCP716   0.0000
    34 H2'1        -0.8974    16.2849   147.7085 H            1 DCP716   0.0000
    35 H2'2        -0.1747    17.3852   146.7422 H            1 DCP716   0.0000
    36 H3'         -2.6377    16.3932   146.3504 H            1 DCP716   0.0000
    37 H4'         -3.5166    18.9003   146.8041 H            1 DCP716   0.0000
    38 H10         -3.1314    17.9697   144.8149 H            1 DCP716   0.0000
    39 H5'1        -4.7455    16.8693   146.9205 H            1 DCP716   0.0000
    40 H5'2        -4.9448    17.7418   148.2864 H            1 DCP716   0.0000
@<TRIPOS>BOND
     1    1    2       1
     2    1    6       1
     3    1    9       1
     4    2    3       1
     5    2    7       2
     6    3    4       2
     7    4    5       1
     8    4    8       1
     9    5    6       2
    10    9   10       1
    11    9   13       1
    12   10   11       1
    13   11   12       1
    14   11   14       1
    15   12   13       1
    16   12   15       1
    17   15   16       1
    18   16   17       1
    19   17   18      ar
    20   17   19      ar
    21   17   20       1
    22   20   21       1
    23   21   22      ar
    24   21   23      ar
    25   21   24       1
    26   24   25       1
    27   25   26      ar
    28   25   27      ar
    29   25   28      ar
    30    5   29       1
    31    6   30       1
    32    8   31       1
    33    8   32       1
    34    9   33       1
    35   10   34       1
    36   10   35       1
    37   11   36       1
    38   12   37       1
    39   14   38       1
    40   15   39       1
    41   15   40       1
@<TRIPOS>SUBSTRUCTURE
     1 DCP716      1 GROUP             4 A     DCP     0 **** DCP A 716
