@<TRIPOS>MOLECULE
1q5o_CMP_1_ligand
   34    37     1     0     0
SMALL
NO_CHARGES


@<TRIPOS>ATOM
     1 P           25.1510    41.2560     6.8510 P.3          1 CMP201   0.0000
     2 O1P         25.3240    40.5930     5.5390 O.3          1 CMP201   0.0000
     3 O2P         23.8550    41.9020     7.1580 O.2          1 CMP201   0.0000
     4 O5'         25.5290    40.2020     8.0110 O.3          1 CMP201   0.0000
     5 C5'         26.8910    39.7850     8.1590 C.3          1 CMP201   0.0000
     6 C4'         27.7680    41.0190     8.3770 C.3          1 CMP201   0.0000
     7 O4'         29.1810    40.7810     8.3620 O.3          1 CMP201   0.0000
     8 C3'         27.6350    41.8800     7.1260 C.3          1 CMP201   0.0000
     9 O3'         26.2990    42.3740     7.0170 O.3          1 CMP201   0.0000
    10 C2'         28.6690    42.9480     7.4770 C.3          1 CMP201   0.0000
    11 O2'         28.1160    43.7800     8.5010 O.3          1 CMP201   0.0000
    12 C1'         29.7710    42.0640     8.0720 C.3          1 CMP201   0.0000
    13 N9          30.8770    41.8590     7.1070 N.pl3        1 CMP201   0.0000
    14 C8          30.8140    41.2050     5.9490 C.2          1 CMP201   0.0000
    15 N7          32.0050    41.2310     5.3550 N.2          1 CMP201   0.0000
    16 C5          32.8360    41.9070     6.1420 C.ar         1 CMP201   0.0000
    17 C6          34.1780    42.2640     6.0670 C.ar         1 CMP201   0.0000
    18 N6          34.9160    41.9120     5.0180 N.pl3        1 CMP201   0.0000
    19 N1          34.7180    42.9730     7.0690 N.ar         1 CMP201   0.0000
    20 C2          34.0050    43.3380     8.1220 C.ar         1 CMP201   0.0000
    21 N3          32.7270    43.0150     8.2240 N.ar         1 CMP201   0.0000
    22 C4          32.1190    42.3080     7.2600 C.ar         1 CMP201   0.0000
    23 H1P         24.7578    41.0537     4.8555 H            1 CMP201   0.0000
    24 H5'1        27.1865    39.3052     7.3329 H            1 CMP201   0.0000
    25 H5'2        26.9709    39.1735     8.9462 H            1 CMP201   0.0000
    26 H4'         27.4921    41.5218     9.1962 H            1 CMP201   0.0000
    27 H3'         27.9018    41.3726     6.3067 H            1 CMP201   0.0000
    28 H2'         28.9765    43.4671     6.6795 H            1 CMP201   0.0000
    29 H7          28.0671    44.7236     8.1736 H            1 CMP201   0.0000
    30 H1'         30.1229    42.4760     8.9125 H            1 CMP201   0.0000
    31 H9          29.9964    40.7617     5.5814 H            1 CMP201   0.0000
    32 H10         35.8801    42.1740     4.9744 H            1 CMP201   0.0000
    33 H11         34.5068    41.3853     4.2729 H            1 CMP201   0.0000
    34 H12         34.4392    43.8661     8.8517 H            1 CMP201   0.0000
@<TRIPOS>BOND
     1    1    2       1
     2    1    3       2
     3    1    4       1
     4    1    9       1
     5    4    5       1
     6    5    6       1
     7    6    7       1
     8    6    8       1
     9    7   12       1
    10    8    9       1
    11    8   10       1
    12   10   11       1
    13   10   12       1
    14   12   13       1
    15   13   14       1
    16   13   22       1
    17   14   15       2
    18   15   16       1
    19   16   17      ar
    20   16   22      ar
    21   17   18       1
    22   17   19      ar
    23   19   20      ar
    24   20   21      ar
    25   21   22      ar
    26    2   23       1
    27    5   24       1
    28    5   25       1
    29    6   26       1
    30    8   27       1
    31   10   28       1
    32   11   29       1
    33   12   30       1
    34   14   31       1
    35   18   32       1
    36   18   33       1
    37   20   34       1
@<TRIPOS>SUBSTRUCTURE
     1 CMP201      1 GROUP             4 A     CMP     0 **** CMP A 201
