@<TRIPOS>MOLECULE
3k52_IP8_2_ligand
   19    18     1     0     0
SMALL
NO_CHARGES


@<TRIPOS>ATOM
     1 O           27.3540    20.6930    30.0770 O.co2        1 IP8300   0.0000
     2 C1          29.2110    19.0830    32.3730 C.3          1 IP8300   0.0000
     3 O1          28.8420    20.4170    32.0200 O.3          1 IP8300   0.0000
     4 P1          27.3210    20.7420    31.5900 P.3          1 IP8300   0.0000
     5 C2          30.5580    18.7380    31.7450 C.3          1 IP8300   0.0000
     6 O2          26.5130    19.6330    32.2290 O.co2        1 IP8300  -1.0000
     7 C3          30.9150    17.3160    32.1140 C.2          1 IP8300   0.0000
     8 O3          27.0590    22.1160    32.1610 O.co2        1 IP8300  -1.0000
     9 C4          32.1650    16.6840    31.5740 C.3          1 IP8300   0.0000
    10 C5          30.1220    16.6260    32.9120 C.2          1 IP8300   0.0000
    11 H1          28.5158    18.4465    32.0389 H            1 IP8300   0.0000
    12 H2          29.2797    19.0095    33.3679 H            1 IP8300   0.0000
    13 H3          31.2596    19.3614    32.0900 H            1 IP8300   0.0000
    14 H4          30.4970    18.8223    30.7504 H            1 IP8300   0.0000
    15 H5          32.2414    15.7485    31.9190 H            1 IP8300   0.0000
    16 H6          32.1259    16.6687    30.5749 H            1 IP8300   0.0000
    17 H7          32.9604    17.2138    31.8684 H            1 IP8300   0.0000
    18 H8          30.3557    15.6852    33.1577 H            1 IP8300   0.0000
    19 H9          29.2874    17.0439    33.2709 H            1 IP8300   0.0000
@<TRIPOS>BOND
     1    1    4      ar
     2    2    3       1
     3    2    5       1
     4    3    4       1
     5    4    6      ar
     6    4    8      ar
     7    5    7       1
     8    7    9       1
     9    7   10       2
    10   10   19       1
    11    2   11       1
    12    2   12       1
    13    5   13       1
    14    5   14       1
    15   10   18       1
    16    9   15       1
    17    9   16       1
    18    9   17       1
@<TRIPOS>SUBSTRUCTURE
     1 IP8300      1 GROUP             4 B     IP8     0 **** IP8 B 300
