@<TRIPOS>MOLECULE
4gll_NAD_1_ligand
   70    74     1     0     0
SMALL
NO_CHARGES


@<TRIPOS>ATOM
     1 PA          48.3100    23.0500    38.6730 P.3          1 NAD800   0.0000
     2 O1A         47.6680    21.8350    38.2670 O.co2        1 NAD800   0.0000
     3 O2A         48.5810    23.9890    37.6510 O.co2        1 NAD800  -1.0000
     4 O5B         47.4270    23.7250    39.7350 O.3          1 NAD800   0.0000
     5 C5B         47.3790    25.1010    39.9680 C.3          1 NAD800   0.0000
     6 C4B         45.9410    25.5680    39.8960 C.3          1 NAD800   0.0000
     7 O4B         45.8440    26.9420    40.1690 O.3          1 NAD800   0.0000
     8 C3B         45.3260    25.3780    38.5470 C.3          1 NAD800   0.0000
     9 O3B         44.1810    24.6060    38.7840 O.3          1 NAD800   0.0000
    10 C2B         45.0270    26.7730    38.0490 C.3          1 NAD800   0.0000
    11 O2B         43.9040    26.9160    37.2160 O.3          1 NAD800   0.0000
    12 C1B         44.9170    27.5560    39.3260 C.3          1 NAD800   0.0000
    13 N9A         45.2290    28.9630    39.1690 N.pl3        1 NAD800   0.0000
    14 C8A         46.3210    29.4600    38.6320 C.2          1 NAD800   0.0000
    15 N7A         46.3040    30.7750    38.6690 N.2          1 NAD800   0.0000
    16 C5A         45.1770    31.1500    39.2360 C.ar         1 NAD800   0.0000
    17 C6A         44.5210    32.4090    39.5560 C.ar         1 NAD800   0.0000
    18 N6A         45.0970    33.5590    39.2690 N.pl3        1 NAD800   0.0000
    19 N1A         43.3380    32.3580    40.1370 N.ar         1 NAD800   0.0000
    20 C2A         42.7520    31.2240    40.4130 C.ar         1 NAD800   0.0000
    21 N3A         43.2580    30.0420    40.1470 N.ar         1 NAD800   0.0000
    22 C4A         44.4540    29.9430    39.5550 C.ar         1 NAD800   0.0000
    23 O3          49.6310    22.6720    39.3740 O.3          1 NAD800   0.0000
    24 PN          49.9410    21.9210    40.6860 P.3          1 NAD800   0.0000
    25 O1N         48.7620    21.3540    41.2530 O.co2        1 NAD800   0.0000
    26 O2N         51.0700    21.1070    40.3710 O.co2        1 NAD800  -1.0000
    27 O5D         50.4130    23.1300    41.4720 O.3          1 NAD800   0.0000
    28 C5D         49.6830    23.5660    42.5830 C.3          1 NAD800   0.0000
    29 C4D         50.5030    24.2780    43.6170 C.3          1 NAD800   0.0000
    30 O4D         51.5570    23.4930    44.0740 O.3          1 NAD800   0.0000
    31 C3D         51.1070    25.4770    42.9570 C.3          1 NAD800   0.0000
    32 O3D         50.8970    26.6090    43.7770 O.3          1 NAD800   0.0000
    33 C2D         52.5360    25.1090    42.8170 C.3          1 NAD800   0.0000
    34 O2D         53.3200    26.2530    42.9030 O.3          1 NAD800   0.0000
    35 C1D         52.7470    24.2090    43.9870 C.3          1 NAD800   0.0000
    36 N1N         53.8190    23.3050    43.7130 N.ar         1 NAD800   1.0000
    37 C2N         53.6420    22.2530    42.9620 C.ar         1 NAD800   0.0000
    38 C3N         54.6860    21.4030    42.7000 C.ar         1 NAD800   0.0000
    39 C7N         54.5150    20.1900    41.8760 C.2          1 NAD800   0.0000
    40 O7N         55.4590    19.5100    41.6780 O.2          1 NAD800   0.0000
    41 N7N         53.3610    19.8550    41.3870 N.am         1 NAD800   0.0000
    42 C4N         55.9150    21.6590    43.2100 C.ar         1 NAD800   0.0000
    43 C5N         56.0620    22.7610    43.9850 C.ar         1 NAD800   0.0000
    44 C6N         54.9920    23.5640    44.2250 C.ar         1 NAD800   0.0000
    45 H5B1        47.9203    25.5767    39.2747 H            1 NAD800   0.0000
    46 H5B2        47.7502    25.2998    40.8750 H            1 NAD800   0.0000
    47 H4B         45.4025    25.0645    40.5716 H            1 NAD800   0.0000
    48 H3B         45.9552    24.9050    37.9302 H            1 NAD800   0.0000
    49 H5          43.5702    25.0975    39.4048 H            1 NAD800   0.0000
    50 H2B         45.8282    27.1032    37.5500 H            1 NAD800   0.0000
    51 H7          43.0847    26.6206    37.7074 H            1 NAD800   0.0000
    52 H1B         43.9973    27.4548    39.7054 H            1 NAD800   0.0000
    53 H8A         47.0642    28.9126    38.2473 H            1 NAD800   0.0000
    54 H6A1        44.6372    34.4182    39.4933 H            1 NAD800   0.0000
    55 H6A2        45.9939    33.5724    38.8269 H            1 NAD800   0.0000
    56 H2A         41.8568    31.2583    40.8573 H            1 NAD800   0.0000
    57 H5D1        49.2601    22.7683    43.0130 H            1 NAD800   0.0000
    58 H5D2        48.9697    24.1902    42.2642 H            1 NAD800   0.0000
    59 H4D         49.9247    24.5597    44.3827 H            1 NAD800   0.0000
    60 H3D         50.6964    25.6205    42.0566 H            1 NAD800   0.0000
    61 H17         50.8650    26.3251    44.7353 H            1 NAD800   0.0000
    62 H2D         52.6998    24.6251    41.9574 H            1 NAD800   0.0000
    63 H19         53.9501    26.1681    43.6749 H            1 NAD800   0.0000
    64 H1D         52.9177    24.7325    44.8218 H            1 NAD800   0.0000
    65 H2N         52.7393    22.0652    42.5749 H            1 NAD800   0.0000
    66 H7N1        53.2742    19.0277    40.8320 H            1 NAD800   0.0000
    67 H7N2        52.5582    20.4241    41.5650 H            1 NAD800   0.0000
    68 H4N         56.6886    21.0543    43.0206 H            1 NAD800   0.0000
    69 H5N         56.9542    22.9825    44.3787 H            1 NAD800   0.0000
    70 H6N         55.1054    24.3701    44.8059 H            1 NAD800   0.0000
@<TRIPOS>BOND
     1    1    2      ar
     2    1    3      ar
     3    1    4       1
     4    1   23       1
     5    4    5       1
     6    5    6       1
     7    6    7       1
     8    6    8       1
     9    7   12       1
    10    8    9       1
    11    8   10       1
    12   10   11       1
    13   10   12       1
    14   12   13       1
    15   13   14       1
    16   13   22       1
    17   14   15       2
    18   15   16       1
    19   16   17      ar
    20   16   22      ar
    21   17   18       1
    22   17   19      ar
    23   19   20      ar
    24   20   21      ar
    25   21   22      ar
    26   23   24       1
    27   24   25      ar
    28   24   26      ar
    29   24   27       1
    30   27   28       1
    31   28   29       1
    32   29   30       1
    33   29   31       1
    34   30   35       1
    35   31   32       1
    36   31   33       1
    37   33   34       1
    38   33   35       1
    39   35   36       1
    40   36   37      ar
    41   36   44      ar
    42   37   38      ar
    43   38   39       1
    44   38   42      ar
    45   39   40       2
    46   39   41      am
    47   42   43      ar
    48   43   44      ar
    49   44   70       1
    50    5   45       1
    51    5   46       1
    52    6   47       1
    53    8   48       1
    54    9   49       1
    55   10   50       1
    56   11   51       1
    57   12   52       1
    58   14   53       1
    59   18   54       1
    60   18   55       1
    61   20   56       1
    62   43   69       1
    63   28   57       1
    64   28   58       1
    65   29   59       1
    66   31   60       1
    67   32   61       1
    68   33   62       1
    69   34   63       1
    70   35   64       1
    71   37   65       1
    72   41   66       1
    73   41   67       1
    74   42   68       1
@<TRIPOS>SUBSTRUCTURE
     1 NAD800      1 GROUP             4 A     NAD     0 **** NAD A 800
