@<TRIPOS>MOLECULE
3pnl_ADP_1_ligand
   39    41     1     0     0
SMALL
NO_CHARGES


@<TRIPOS>ATOM
     1 PB           5.5520    -5.5490   -23.5620 P.3          1 ADP1211   0.0000
     2 O1B          4.4540    -5.1710   -22.5890 O.co2        1 ADP1211   0.0000
     3 O2B          6.6800    -4.5550   -23.6550 O.co2        1 ADP1211  -1.0000
     4 O3B          6.0990    -6.9350   -23.3580 O.co2        1 ADP1211  -1.0000
     5 PA           3.3320    -6.0850   -25.3820 P.3          1 ADP1211   0.0000
     6 O1A          2.6610    -6.6090   -24.1580 O.co2        1 ADP1211   0.0000
     7 O2A          2.6230    -5.0930   -26.2270 O.co2        1 ADP1211  -1.0000
     8 O3A          4.7830    -5.4390   -25.0130 O.3          1 ADP1211   0.0000
     9 O5'          3.7910    -7.3210   -26.3140 O.3          1 ADP1211   0.0000
    10 C5'          4.1060    -8.6540   -25.8780 C.3          1 ADP1211   0.0000
    11 C4'          4.3440    -9.5180   -27.1210 C.3          1 ADP1211   0.0000
    12 O4'          5.5180    -9.0740   -27.8170 O.3          1 ADP1211   0.0000
    13 C3'          4.6820   -10.9490   -26.8580 C.3          1 ADP1211   0.0000
    14 O3'          3.5180   -11.6890   -26.6220 O.3          1 ADP1211   0.0000
    15 C2'          5.4670   -11.4230   -28.0620 C.3          1 ADP1211   0.0000
    16 O2'          4.6880   -12.0120   -29.0980 O.3          1 ADP1211   0.0000
    17 C1'          6.0170   -10.1350   -28.6220 C.3          1 ADP1211   0.0000
    18 N9           7.4830   -10.1610   -28.4460 N.pl3        1 ADP1211   0.0000
    19 C8           8.1440    -9.8350   -27.3130 C.2          1 ADP1211   0.0000
    20 N7           9.4720    -9.9310   -27.4930 N.2          1 ADP1211   0.0000
    21 C5           9.6590   -10.3330   -28.7770 C.ar         1 ADP1211   0.0000
    22 C6          10.8310   -10.6290   -29.6300 C.ar         1 ADP1211   0.0000
    23 N6          12.0860   -10.5340   -29.1140 N.pl3        1 ADP1211   0.0000
    24 N1          10.5770   -10.9950   -30.9170 N.ar         1 ADP1211   0.0000
    25 C2           9.3240   -11.1250   -31.4300 C.ar         1 ADP1211   0.0000
    26 N3           8.2130   -10.8570   -30.7080 N.ar         1 ADP1211   0.0000
    27 C4           8.3380   -10.4730   -29.4080 C.ar         1 ADP1211   0.0000
    28 H5'1         3.3443    -9.0259   -25.3475 H            1 ADP1211   0.0000
    29 H5'2         4.9305    -8.6396   -25.3123 H            1 ADP1211   0.0000
    30 H4'          3.5507    -9.4639   -27.7274 H            1 ADP1211   0.0000
    31 H3'          5.2677   -11.0000   -26.0491 H            1 ADP1211   0.0000
    32 H5           3.7595   -12.6436   -26.4477 H            1 ADP1211   0.0000
    33 H2'          6.2081   -12.0342   -27.7842 H            1 ADP1211   0.0000
    34 H7           4.2058   -12.8112   -28.7392 H            1 ADP1211   0.0000
    35 H1'          5.7653   -10.0159   -29.5824 H            1 ADP1211   0.0000
    36 H9           7.7047    -9.5600   -26.4578 H            1 ADP1211   0.0000
    37 H10         12.8794   -10.7337   -29.6890 H            1 ADP1211   0.0000
    38 H11         12.2152   -10.2645   -28.1597 H            1 ADP1211   0.0000
    39 H12          9.2208   -11.4302   -32.3767 H            1 ADP1211   0.0000
@<TRIPOS>BOND
     1    1    2      ar
     2    1    3      ar
     3    1    4      ar
     4    1    8       1
     5    5    6      ar
     6    5    7      ar
     7    5    8       1
     8    5    9       1
     9    9   10       1
    10   10   11       1
    11   11   12       1
    12   11   13       1
    13   12   17       1
    14   13   14       1
    15   13   15       1
    16   15   16       1
    17   15   17       1
    18   17   18       1
    19   18   19       1
    20   18   27       1
    21   19   20       2
    22   20   21       1
    23   21   22      ar
    24   21   27      ar
    25   22   23       1
    26   22   24      ar
    27   24   25      ar
    28   25   26      ar
    29   26   27      ar
    30   25   39       1
    31   23   38       1
    32   23   37       1
    33   10   28       1
    34   10   29       1
    35   11   30       1
    36   13   31       1
    37   14   32       1
    38   15   33       1
    39   16   34       1
    40   17   35       1
    41   19   36       1
@<TRIPOS>SUBSTRUCTURE
     1 ADP1211     1 GROUP             4 B     ADP     0 **** ADP B1211
