@<TRIPOS>MOLECULE
3ied_AN2_1_ligand
   41    43     1     0     0
SMALL
NO_CHARGES


@<TRIPOS>ATOM
     1 N3B         31.0610    35.3980    18.2400 N.3          1 AN2401   0.0000
     2 PB          31.6940    36.9570    17.7630 P.3          1 AN2401   0.0000
     3 O2B         33.1010    37.0430    18.2830 O.co2        1 AN2401   0.0000
     4 O1B         30.7100    38.0060    18.2190 O.co2        1 AN2401  -1.0000
     5 O3A         31.7890    37.0260    16.1540 O.3          1 AN2401   0.0000
     6 PA          30.7130    36.4190    15.0970 P.3          1 AN2401   0.0000
     7 O1A         29.8460    35.3530    15.7320 O.co2        1 AN2401   0.0000
     8 O2A         31.4670    36.0770    13.8410 O.co2        1 AN2401  -1.0000
     9 O5'         29.7920    37.6810    14.7920 O.3          1 AN2401   0.0000
    10 C5'         30.3830    38.8750    14.3090 C.3          1 AN2401   0.0000
    11 C4'         29.5080    40.0350    14.7460 C.3          1 AN2401   0.0000
    12 O4'         28.2590    40.0150    14.0420 O.3          1 AN2401   0.0000
    13 C3'         29.1250    39.9620    16.2030 C.3          1 AN2401   0.0000
    14 O3'         30.1050    40.5160    17.0780 O.3          1 AN2401   0.0000
    15 C2'         27.8480    40.7710    16.2530 C.3          1 AN2401   0.0000
    16 O2'         28.1630    42.1530    16.4710 O.3          1 AN2401   0.0000
    17 C1'         27.2360    40.5660    14.8790 C.3          1 AN2401   0.0000
    18 N9          26.0880    39.6520    15.0340 N.pl3        1 AN2401   0.0000
    19 C8          26.4270    38.2530    14.8920 C.2          1 AN2401   0.0000
    20 N7          25.1150    37.6700    15.1160 N.2          1 AN2401   0.0000
    21 C5          24.1780    38.6150    15.3540 C.ar         1 AN2401   0.0000
    22 C4          24.8260    39.9390    15.3060 C.ar         1 AN2401   0.0000
    23 N3          24.0930    41.0490    15.5100 N.ar         1 AN2401   0.0000
    24 C2          22.7740    40.9730    15.7700 C.ar         1 AN2401   0.0000
    25 N1          22.1090    39.8110    15.8240 N.ar         1 AN2401   0.0000
    26 C6          22.7270    38.6270    15.6340 C.ar         1 AN2401   0.0000
    27 N6          22.0380    37.4710    15.7070 N.pl3        1 AN2401   0.0000
    28 H3B1        30.3914    35.0893    17.5645 H            1 AN2401   0.0000
    29 H3B2        31.8092    34.7368    18.2939 H            1 AN2401   0.0000
    30 H5'1        30.4383    38.8477    13.3109 H            1 AN2401   0.0000
    31 H5'2        31.3013    38.9788    14.6910 H            1 AN2401   0.0000
    32 H4'         29.9805    40.8978    14.5663 H            1 AN2401   0.0000
    33 H3'         28.9375    39.0136    16.4587 H            1 AN2401   0.0000
    34 H7          30.4231    39.8107    17.7115 H            1 AN2401   0.0000
    35 H2'         27.2384    40.4286    16.9680 H            1 AN2401   0.0000
    36 H9          29.0069    42.2226    17.0030 H            1 AN2401   0.0000
    37 H1'         26.9272    41.4421    14.5088 H            1 AN2401   0.0000
    38 H11         27.3051    37.8160    14.6972 H            1 AN2401   0.0000
    39 H12         22.2686    41.8210    15.9298 H            1 AN2401   0.0000
    40 H13         21.0563    37.4852    15.8968 H            1 AN2401   0.0000
    41 H14         22.5085    36.5991    15.5714 H            1 AN2401   0.0000
@<TRIPOS>BOND
     1    1    2       1
     2    2    3      ar
     3    2    4      ar
     4    2    5       1
     5    5    6       1
     6    6    7      ar
     7    6    8      ar
     8    6    9       1
     9    9   10       1
    10   10   11       1
    11   11   12       1
    12   11   13       1
    13   12   17       1
    14   13   14       1
    15   13   15       1
    16   15   16       1
    17   15   17       1
    18   17   18       1
    19   18   19       1
    20   18   22       1
    21   19   20       2
    22   20   21       1
    23   21   22      ar
    24   21   26      ar
    25   22   23      ar
    26   23   24      ar
    27   24   25      ar
    28   25   26      ar
    29   26   27       1
    30    1   28       1
    31    1   29       1
    32   27   41       1
    33   27   40       1
    34   10   30       1
    35   10   31       1
    36   11   32       1
    37   13   33       1
    38   14   34       1
    39   15   35       1
    40   16   36       1
    41   17   37       1
    42   19   38       1
    43   24   39       1
@<TRIPOS>SUBSTRUCTURE
     1 AN2401      1 GROUP             4 A     AN2     0 **** AN2 A 401
