@<TRIPOS>MOLECULE
4d2d_ALA_ALA_ALA_1_ligand
   33    32     1     0     0
SMALL
NO_CHARGES


@<TRIPOS>ATOM
     1 N          -22.7220   -18.7470    -6.1930 N.4          1 ALA32    1.0000
     2 CA         -23.2590   -19.1760    -4.9080 C.3          1 ALA32    0.0000
     3 C          -22.4650   -18.5710    -3.7570 C.2          1 ALA32    0.0000
     4 O          -21.4250   -17.9470    -3.9700 O.2          1 ALA32    0.0000
     5 CB         -23.2590   -20.6930    -4.8110 C.3          1 ALA32    0.0000
     6 H1         -22.7290   -17.7482    -6.2405 H            1 ALA32    0.0000
     7 H2         -21.7836   -19.0787    -6.2896 H            1 ALA32    0.0000
     8 HA         -24.2042   -18.8567    -4.8399 H            1 ALA32    0.0000
     9 HB1        -23.6299   -20.9703    -3.9247 H            1 ALA32    0.0000
    10 HB2        -23.8242   -21.0738    -5.5428 H            1 ALA32    0.0000
    11 HB3        -22.3229   -21.0328    -4.9017 H            1 ALA32    0.0000
    12 N          -22.9640   -18.7600    -2.5400 N.am         1 ALA32    0.0000
    13 CA         -22.2980   -18.2420    -1.3500 C.3          1 ALA32    0.0000
    14 C          -22.7870   -18.9350    -0.0810 C.2          1 ALA32    0.0000
    15 O          -22.3080   -20.0100     0.2690 O.2          1 ALA32    0.0000
    16 CB         -22.5020   -16.7350    -1.2390 C.3          1 ALA32    0.0000
    17 H7         -23.8178   -19.2703    -2.4373 H            1 ALA32    0.0000
    18 H8         -21.3177   -18.4170    -1.4416 H            1 ALA32    0.0000
    19 H9         -22.0402   -16.3956    -0.4195 H            1 ALA32    0.0000
    20 H10        -22.1198   -16.2865    -2.0469 H            1 ALA32    0.0000
    21 H11        -23.4798   -16.5346    -1.1778 H            1 ALA32    0.0000
    22 N          -23.7510   -18.3190     0.5940 N.am         1 ALA32    0.0000
    23 CA         -24.1710   -18.7520     1.9250 C.3          1 ALA32    0.0000
    24 C          -22.9650   -18.8450     2.8520 C.2          1 ALA32    0.0000
    25 O          -22.3530   -17.8280     3.1770 O.co2        1 ALA32    0.0000
    26 CB         -24.9070   -20.0860     1.8630 C.3          1 ALA32    0.0000
    27 OXT        -22.5700   -19.9280     3.2840 O.co2        1 ALA32   -1.0000
    28 H12        -24.2050   -17.5317     0.1769 H            1 ALA32    0.0000
    29 H13        -24.7975   -18.0656     2.2943 H            1 ALA32    0.0000
    30 H14        -25.1823   -20.3580     2.7851 H            1 ALA32    0.0000
    31 H15        -25.7189   -19.9923     1.2867 H            1 ALA32    0.0000
    32 H16        -24.3025   -20.7826     1.4766 H            1 ALA32    0.0000
    33 H17        -23.2849   -19.1197    -6.9307 H            1 ALA32    0.0000
@<TRIPOS>BOND
     1    1    2       1
     2    2    5       1
     3    2    3       1
     4    3    4       2
     5    1    6       1
     6    1    7       1
     7    2    8       1
     8    3   12      am
     9    5    9       1
    10    5   10       1
    11    5   11       1
    12   12   13       1
    13   13   16       1
    14   13   14       1
    15   14   15       2
    16   16   21       1
    17   12   17       1
    18   13   18       1
    19   14   22      am
    20   16   19       1
    21   16   20       1
    22   22   23       1
    23   23   26       1
    24   23   24       1
    25   24   25      ar
    26   24   27      ar
    27   26   32       1
    28   22   28       1
    29   23   29       1
    30   26   30       1
    31   26   31       1
    32    1   33       1
@<TRIPOS>SUBSTRUCTURE
     1 ALA32       1 RESIDUE           4 B     ALA     0 **** ALA B  32
