@<TRIPOS>MOLECULE
1s2i_BP1_2_ligand
   13    14     1     0     0
SMALL
NO_CHARGES


@<TRIPOS>ATOM
     1 N9           0.7830    21.9290     4.0440 N.2          1 BP12245   0.0000
     2 C4           1.9400    22.4050     4.6220 C.ar         1 BP12245   0.0000
     3 N3           2.0870    23.4940     5.5040 N.ar         1 BP12245   0.0000
     4 C2           3.3780    23.7050     5.9040 C.ar         1 BP12245   0.0000
     5 N1           4.4700    22.9370     5.4910 N.ar         1 BP12245   0.0000
     6 C6           4.3100    21.8480     4.6010 C.ar         1 BP12245   0.0000
     7 BR           5.4520    21.0950     4.1920 Br           1 BP12245   0.0000
     8 C5           2.9590    21.5410     4.1290 C.ar         1 BP12245   0.0000
     9 N7           2.4230    20.5700     3.2730 N.pl3        1 BP12245   0.0000
    10 C8           1.1470    20.8680     3.2790 C.2          1 BP12245   0.0000
    11 H1           3.5523    24.4607     6.5353 H            1 BP12245   0.0000
    12 H2           0.4794    20.3439     2.7503 H            1 BP12245   0.0000
    13 H3           2.8940    19.8367     2.7826 H            1 BP12245   0.0000
@<TRIPOS>BOND
     1    1    2       1
     2    1   10       2
     3    2    3      ar
     4    2    8      ar
     5    3    4      ar
     6    4    5      ar
     7    5    6      ar
     8    6    7       1
     9    6    8      ar
    10    8    9       1
    11    9   10       1
    12   10   12       1
    13    4   11       1
    14    9   13       1
@<TRIPOS>SUBSTRUCTURE
     1 BP12245     1 GROUP             4 B     BP1     0 **** BP1 B2245
