@<TRIPOS>MOLECULE
4q7f_3D1_1_ligand
   31    33     1     0     0
SMALL
NO_CHARGES


@<TRIPOS>ATOM
     1 O5'        -43.0070    46.7220   111.0460 O.3          1 3D1603   0.0000
     2 C5'        -44.2240    45.9820   111.0160 C.3          1 3D1603   0.0000
     3 C4'        -43.9510    44.5130   110.7420 C.3          1 3D1603   0.0000
     4 O4'        -45.1650    43.8220   110.9970 O.3          1 3D1603   0.0000
     5 C1'        -45.7370    43.2930   109.7970 C.3          1 3D1603   0.0000
     6 N9         -47.2070    43.5290   109.8100 N.pl3        1 3D1603   0.0000
     7 C4         -48.0420    42.6940   110.4130 C.ar         1 3D1603   0.0000
     8 N3         -47.8740    41.5420   111.1010 N.ar         1 3D1603   0.0000
     9 C2         -48.9360    40.8940   111.6150 C.ar         1 3D1603   0.0000
    10 N1         -50.2110    41.3520   111.4890 N.ar         1 3D1603   0.0000
    11 C6         -50.5130    42.4920   110.8270 C.ar         1 3D1603   0.0000
    12 N6         -51.8030    42.9160   110.7280 N.pl3        1 3D1603   0.0000
    13 C5         -49.3910    43.2600   110.2450 C.ar         1 3D1603   0.0000
    14 N7         -49.2420    44.3960   109.5330 N.2          1 3D1603   0.0000
    15 C8         -47.9180    44.5610   109.2830 C.2          1 3D1603   0.0000
    16 C2'        -44.9600    43.9030   108.6390 C.3          1 3D1603   0.0000
    17 C3'        -43.6170    44.1590   109.2980 C.3          1 3D1603   0.0000
    18 O3'        -42.8470    42.9390   109.2540 O.3          1 3D1603   0.0000
    19 H5'        -42.6484    46.7361   111.9794 H            1 3D1603   0.0000
    20 H5'1       -44.8126    46.3469   110.2946 H            1 3D1603   0.0000
    21 H5'2       -44.6846    46.0714   111.8991 H            1 3D1603   0.0000
    22 H4'        -43.2322    44.1788   111.3516 H            1 3D1603   0.0000
    23 H1'        -45.5815    42.3052   109.7886 H            1 3D1603   0.0000
    24 H6         -48.7812    40.0394   112.1107 H            1 3D1603   0.0000
    25 H7         -52.0154    43.7604   110.2362 H            1 3D1603   0.0000
    26 H8         -52.5381    42.3830   111.1471 H            1 3D1603   0.0000
    27 H9         -47.5223    45.3313   108.7829 H            1 3D1603   0.0000
    28 H2'1       -45.3811    44.7523   108.3206 H            1 3D1603   0.0000
    29 H2'2       -44.8783    43.2642   107.8740 H            1 3D1603   0.0000
    30 H3'        -43.1314    44.9077   108.8468 H            1 3D1603   0.0000
    31 H13        -43.3774    42.1952   109.6607 H            1 3D1603   0.0000
@<TRIPOS>BOND
     1    1    2       1
     2    2    3       1
     3    3    4       1
     4    3   17       1
     5    4    5       1
     6    5    6       1
     7    5   16       1
     8    6    7       1
     9    6   15       1
    10    7    8      ar
    11    7   13      ar
    12    8    9      ar
    13    9   10      ar
    14   10   11      ar
    15   11   12       1
    16   11   13      ar
    17   13   14       1
    18   14   15       2
    19   16   17       1
    20   17   18       1
    21    1   19       1
    22    2   20       1
    23    2   21       1
    24    3   22       1
    25    5   23       1
    26    9   24       1
    27   12   25       1
    28   12   26       1
    29   15   27       1
    30   16   28       1
    31   16   29       1
    32   17   30       1
    33   18   31       1
@<TRIPOS>SUBSTRUCTURE
     1 3D1603      1 GROUP             4 A     3D1     0 **** 3D1 A 603
