@<TRIPOS>MOLECULE
3ibq_ATP_1_ligand
   43    45     1     0     0
SMALL
NO_CHARGES


@<TRIPOS>ATOM
     1 PG          17.0870    27.0090    21.9150 P.3          1 ATP281   0.0000
     2 O1G         16.5940    26.3960    23.2250 O.co2        1 ATP281   0.0000
     3 O2G         16.1910    28.0980    21.5230 O.co2        1 ATP281  -1.0000
     4 O3G         18.5920    27.1170    21.8060 O.co2        1 ATP281  -1.0000
     5 PB          17.7620    26.3550    19.3680 P.3          1 ATP281   0.0000
     6 O1B         18.9130    27.1250    19.8950 O.co2        1 ATP281   0.0000
     7 O2B         17.0410    26.9250    18.1850 O.co2        1 ATP281  -1.0000
     8 O3B         16.7750    26.2050    20.5790 O.3          1 ATP281   0.0000
     9 PA          16.6630    23.8990    18.8810 P.3          1 ATP281   0.0000
    10 O1A         15.7790    24.1850    17.7790 O.co2        1 ATP281   0.0000
    11 O2A         16.0450    23.7720    20.2300 O.co2        1 ATP281  -1.0000
    12 O3A         17.9550    24.8200    19.1060 O.3          1 ATP281   0.0000
    13 O5'         17.4440    22.6070    18.5210 O.3          1 ATP281   0.0000
    14 C5'         18.3740    22.0710    19.3840 C.3          1 ATP281   0.0000
    15 C4'         18.3680    20.5890    19.1770 C.3          1 ATP281   0.0000
    16 O4'         17.9800    19.9660    20.3780 O.3          1 ATP281   0.0000
    17 C3'         17.4420    20.0550    18.0890 C.3          1 ATP281   0.0000
    18 O3'         18.1750    19.8160    16.9640 O.3          1 ATP281   0.0000
    19 C2'         17.1970    18.7040    18.5930 C.3          1 ATP281   0.0000
    20 O2'         18.4220    18.0130    18.3610 O.3          1 ATP281   0.0000
    21 C1'         17.0920    18.9290    20.0750 C.3          1 ATP281   0.0000
    22 N9          15.7460    19.2460    20.6070 N.pl3        1 ATP281   0.0000
    23 C8          15.2580    20.4200    20.8390 C.2          1 ATP281   0.0000
    24 N7          14.0420    20.3320    21.3490 N.2          1 ATP281   0.0000
    25 C5          13.7280    19.0900    21.4550 C.ar         1 ATP281   0.0000
    26 C6          12.5550    18.2930    21.8910 C.ar         1 ATP281   0.0000
    27 N6          11.4760    18.8740    22.3980 N.pl3        1 ATP281   0.0000
    28 N1          12.6710    17.0100    21.7920 N.ar         1 ATP281   0.0000
    29 C2          13.7310    16.4200    21.3080 C.ar         1 ATP281   0.0000
    30 N3          14.8150    17.0320    20.9150 N.ar         1 ATP281   0.0000
    31 C4          14.8710    18.3570    20.9630 C.ar         1 ATP281   0.0000
    32 H5'1        18.1280    22.2858    20.3292 H            1 ATP281   0.0000
    33 H5'2        19.2810    22.4412    19.1832 H            1 ATP281   0.0000
    34 H4'         19.3010    20.2999    18.9625 H            1 ATP281   0.0000
    35 H3'         16.6168    20.5999    17.9403 H            1 ATP281   0.0000
    36 H5          17.8238    20.3744    16.2124 H            1 ATP281   0.0000
    37 H2'         16.3966    18.2590    18.1914 H            1 ATP281   0.0000
    38 H7          18.8746    18.3978    17.5566 H            1 ATP281   0.0000
    39 H1'         17.4169    18.1025    20.5347 H            1 ATP281   0.0000
    40 H9          15.7361    21.2792    20.6571 H            1 ATP281   0.0000
    41 H10         10.6967    18.3172    22.6855 H            1 ATP281   0.0000
    42 H11         11.4417    19.8689    22.4928 H            1 ATP281   0.0000
    43 H12         13.7106    15.4230    21.2327 H            1 ATP281   0.0000
@<TRIPOS>BOND
     1    1    2      ar
     2    1    3      ar
     3    1    4      ar
     4    1    8       1
     5    5    6      ar
     6    5    7      ar
     7    5    8       1
     8    5   12       1
     9    9   10      ar
    10    9   11      ar
    11    9   12       1
    12    9   13       1
    13   13   14       1
    14   14   15       1
    15   15   16       1
    16   15   17       1
    17   16   21       1
    18   17   18       1
    19   17   19       1
    20   19   20       1
    21   19   21       1
    22   21   22       1
    23   22   23       1
    24   22   31       1
    25   23   24       2
    26   24   25       1
    27   25   26      ar
    28   25   31      ar
    29   26   27       1
    30   26   28      ar
    31   28   29      ar
    32   29   30      ar
    33   30   31      ar
    34   29   43       1
    35   27   42       1
    36   27   41       1
    37   23   40       1
    38   14   32       1
    39   14   33       1
    40   15   34       1
    41   17   35       1
    42   18   36       1
    43   19   37       1
    44   20   38       1
    45   21   39       1
@<TRIPOS>SUBSTRUCTURE
     1 ATP281      1 GROUP             4 A     ATP     0 **** ATP A 281
