@<TRIPOS>MOLECULE
3dkq_IMD_1_ligand
    9     9     1     0     0
SMALL
NO_CHARGES


@<TRIPOS>ATOM
     1 N1          75.8350    98.7780    -4.3650 N.2          1 IMD501   0.0000
     2 C2          75.8760    99.0340    -3.0500 C.2          1 IMD501   0.0000
     3 N3          75.3940    97.9770    -2.4210 N.pl3        1 IMD501   0.0000
     4 C4          75.0430    97.0500    -3.3260 C.2          1 IMD501   0.0000
     5 C5          75.3240    97.5440    -4.5670 C.2          1 IMD501   0.0000
     6 H1          76.2110    99.8735    -2.6222 H            1 IMD501   0.0000
     7 H2          74.6454    96.1545    -3.1261 H            1 IMD501   0.0000
     8 H3          75.1811    97.0867    -5.4447 H            1 IMD501   0.0000
     9 H4          75.3049    97.8826    -1.4295 H            1 IMD501   0.0000
@<TRIPOS>BOND
     1    1    2       2
     2    1    5       1
     3    2    3       1
     4    3    4       1
     5    4    5       2
     6    5    8       1
     7    2    6       1
     8    4    7       1
     9    3    9       1
@<TRIPOS>SUBSTRUCTURE
     1 IMD501      1 GROUP             4 A     IMD     0 **** IMD A 501
