@<TRIPOS>MOLECULE
1mrq_STR_1_ligand
   55    58     1     0     0
SMALL
NO_CHARGES


@<TRIPOS>ATOM
     1 C1          -0.0940    35.7250    15.6970 C.3          1 STR501   0.0000
     2 C2          -1.4490    35.6910    14.9910 C.3          1 STR501   0.0000
     3 C3          -1.2970    34.9980    13.6580 C.2          1 STR501   0.0000
     4 O3          -2.0260    35.2970    12.7260 O.2          1 STR501   0.0000
     5 C4          -0.2640    33.9580    13.4840 C.2          1 STR501   0.0000
     6 C5           0.6270    33.6590    14.4470 C.2          1 STR501   0.0000
     7 C6           1.6390    32.5680    14.1480 C.3          1 STR501   0.0000
     8 C7           3.0380    32.9200    14.6440 C.3          1 STR501   0.0000
     9 C8           3.0050    33.4010    16.0910 C.3          1 STR501   0.0000
    10 C9           2.0720    34.6240    16.2350 C.3          1 STR501   0.0000
    11 C10          0.6210    34.3710    15.7920 C.3          1 STR501   0.0000
    12 C11          2.1360    35.2770    17.6280 C.3          1 STR501   0.0000
    13 C12          3.5520    35.4740    18.1780 C.3          1 STR501   0.0000
    14 C13          4.3820    34.2020    18.0670 C.3          1 STR501   0.0000
    15 C14          4.3970    33.7740    16.6090 C.3          1 STR501   0.0000
    16 C15          5.5520    32.7780    16.5140 C.3          1 STR501   0.0000
    17 C16          6.5760    33.3120    17.5210 C.3          1 STR501   0.0000
    18 C17          5.8640    34.3890    18.3490 C.3          1 STR501   0.0000
    19 C18          3.8120    33.1080    18.9870 C.3          1 STR501   0.0000
    20 C19         -0.1240    33.4850    16.7960 C.3          1 STR501   0.0000
    21 C20          6.1250    34.3040    19.8260 C.3          1 STR501   0.0000
    22 O20          7.1100    33.3320    20.1230 O.3          1 STR501   0.0000
    23 C21          6.5350    35.6250    20.4000 C.3          1 STR501   0.0000
    24 H1          -0.2366    36.0665    16.6260 H            1 STR501   0.0000
    25 H2           0.5003    36.3554    15.1977 H            1 STR501   0.0000
    26 H3          -1.7746    36.6255    14.8470 H            1 STR501   0.0000
    27 H4          -2.1073    35.1917    15.5544 H            1 STR501   0.0000
    28 H5          -0.2249    33.4575    12.6191 H            1 STR501   0.0000
    29 H6           1.6753    32.4261    13.1588 H            1 STR501   0.0000
    30 H7           1.3428    31.7240    14.5951 H            1 STR501   0.0000
    31 H8           3.4157    33.6448    14.0678 H            1 STR501   0.0000
    32 H9           3.6195    32.1087    14.5831 H            1 STR501   0.0000
    33 H10          2.6450    32.6618    16.6602 H            1 STR501   0.0000
    34 H11          2.4297    35.3098    15.6012 H            1 STR501   0.0000
    35 H12          1.6314    34.6969    18.2674 H            1 STR501   0.0000
    36 H13          1.6959    36.1732    17.5724 H            1 STR501   0.0000
    37 H14          3.4918    35.7386    19.1405 H            1 STR501   0.0000
    38 H15          4.0025    36.2011    17.6599 H            1 STR501   0.0000
    39 H16          4.6808    34.5783    16.0869 H            1 STR501   0.0000
    40 H17          5.9347    32.7629    15.5903 H            1 STR501   0.0000
    41 H18          5.2511    31.8580    16.7653 H            1 STR501   0.0000
    42 H19          7.3576    33.7087    17.0396 H            1 STR501   0.0000
    43 H20          6.8913    32.5728    18.1161 H            1 STR501   0.0000
    44 H21          6.1460    35.2905    18.0206 H            1 STR501   0.0000
    45 H22          4.3665    32.2800    18.9035 H            1 STR501   0.0000
    46 H23          3.8296    33.4268    19.9346 H            1 STR501   0.0000
    47 H24          2.8695    32.9062    18.7207 H            1 STR501   0.0000
    48 H25          0.3356    32.5995    16.8643 H            1 STR501   0.0000
    49 H26         -0.1287    33.9282    17.6924 H            1 STR501   0.0000
    50 H27         -1.0651    33.3491    16.4865 H            1 STR501   0.0000
    51 H28          5.2746    34.0258    20.2726 H            1 STR501   0.0000
    52 H29          8.0140    33.7594    20.1120 H            1 STR501   0.0000
    53 H30          6.6987    35.5256    21.3815 H            1 STR501   0.0000
    54 H31          7.3729    35.9374    19.9523 H            1 STR501   0.0000
    55 H32          5.8073    36.2941    20.2495 H            1 STR501   0.0000
@<TRIPOS>BOND
     1    1    2       1
     2    1   11       1
     3    2    3       1
     4    3    4       2
     5    3    5       1
     6    5    6       2
     7    6    7       1
     8    6   11       1
     9    7    8       1
    10    8    9       1
    11    9   10       1
    12    9   15       1
    13   10   11       1
    14   10   12       1
    15   11   20       1
    16   12   13       1
    17   13   14       1
    18   14   15       1
    19   14   18       1
    20   14   19       1
    21   15   16       1
    22   16   17       1
    23   17   18       1
    24   18   21       1
    25   21   22       1
    26   21   23       1
    27    1   24       1
    28    1   25       1
    29    2   26       1
    30    2   27       1
    31    5   28       1
    32    7   29       1
    33    7   30       1
    34    8   31       1
    35    8   32       1
    36    9   33       1
    37   10   34       1
    38   12   35       1
    39   12   36       1
    40   13   37       1
    41   13   38       1
    42   15   39       1
    43   16   40       1
    44   16   41       1
    45   17   42       1
    46   17   43       1
    47   18   44       1
    48   19   45       1
    49   19   46       1
    50   19   47       1
    51   20   48       1
    52   20   49       1
    53   20   50       1
    54   21   51       1
    55   22   52       1
    56   23   53       1
    57   23   54       1
    58   23   55       1
@<TRIPOS>SUBSTRUCTURE
     1 STR501      1 GROUP             4 A     STR     0 **** STR A 501
