@<TRIPOS>MOLECULE
3lzu_017_1_ligand
   75    78     1     0     0
SMALL
NO_CHARGES


@<TRIPOS>ATOM
     1 N1           8.9630   -16.2910    -7.9310 N.pl3        1 017200   0.0000
     2 C2           8.8030   -16.0010    -6.6240 C.ar         1 017200   0.0000
     3 C3           7.5340   -15.8130    -6.0870 C.ar         1 017200   0.0000
     4 C4           7.3980   -15.5000    -4.7360 C.ar         1 017200   0.0000
     5 C5           8.5400   -15.3880    -3.9490 C.ar         1 017200   0.0000
     6 C6           9.7980   -15.5710    -4.5040 C.ar         1 017200   0.0000
     7 C7           9.9370   -15.8820    -5.8440 C.ar         1 017200   0.0000
     8 S8           8.4700   -15.0480    -2.3950 S.o2         1 017200   0.0000
     9 O9           9.6710   -14.3460    -2.0590 O.2          1 017200   0.0000
    10 O10          7.3100   -14.2510    -2.1400 O.2          1 017200   0.0000
    11 N11          8.3160   -16.3440    -1.4310 N.3          1 017200   0.0000
    12 C12          7.1740   -17.1870    -1.8270 C.3          1 017200   0.0000
    13 C13          6.6310   -17.9590    -0.6290 C.3          1 017200   0.0000
    14 C14          6.2750   -17.0200     0.5160 C.3          1 017200   0.0000
    15 C15          5.4090   -18.7900    -1.0160 C.3          1 017200   0.0000
    16 C16          9.5510   -17.1450    -1.3220 C.3          1 017200   0.0000
    17 C17          9.9820   -17.1410     0.1440 C.3          1 017200   0.0000
    18 O18         11.0550   -18.0650     0.3350 O.3          1 017200   0.0000
    19 C19         10.4380   -15.7720     0.6320 C.3          1 017200   0.0000
    20 N20         10.5840   -15.8550     2.0680 N.am         1 017200   0.0000
    21 C21          9.7690   -15.2500     2.9200 C.2          1 017200   0.0000
    22 O22          8.7960   -14.5570     2.6300 O.2          1 017200   0.0000
    23 O23         10.1670   -15.5040     4.2900 O.3          1 017200   0.0000
    24 C24          9.5010   -14.7070     5.2530 C.3          1 017200   0.0000
    25 C25          9.1030   -15.6180     6.3950 C.3          1 017200   0.0000
    26 O26         10.3110   -15.7140     7.1450 O.3          1 017200   0.0000
    27 C27         11.0480   -14.4960     7.0400 C.3          1 017200   0.0000
    28 O28         12.4220   -14.8100     6.8090 O.3          1 017200   0.0000
    29 C29         12.7650   -14.5840     5.4510 C.3          1 017200   0.0000
    30 C30         11.7670   -13.5410     4.9610 C.3          1 017200   0.0000
    31 C31         10.5340   -13.7550     5.8250 C.3          1 017200   0.0000
    32 C32         11.7870   -15.3360     0.0700 C.3          1 017200   0.0000
    33 C33         13.2830   -14.0060     1.5940 C.ar         1 017200   0.0000
    34 C34         13.6800   -12.8060     2.1660 C.ar         1 017200   0.0000
    35 C35         13.0200   -11.6290     1.8390 C.ar         1 017200   0.0000
    36 C36         11.9620   -11.6590     0.9410 C.ar         1 017200   0.0000
    37 C37         11.5650   -12.8590     0.3660 C.ar         1 017200   0.0000
    38 C38         12.2210   -14.0340     0.6920 C.ar         1 017200   0.0000
    39 H1           9.8809   -16.4239    -8.3050 H            1 017200   0.0000
    40 H2           8.1638   -16.3732    -8.5264 H            1 017200   0.0000
    41 H3           6.7241   -15.9019    -6.6668 H            1 017200   0.0000
    42 H4           6.4919   -15.3578    -4.3375 H            1 017200   0.0000
    43 H5          10.6114   -15.4772    -3.9300 H            1 017200   0.0000
    44 H6          10.8440   -16.0186    -6.2423 H            1 017200   0.0000
    45 H7           7.4723   -17.8355    -2.5273 H            1 017200   0.0000
    46 H8           6.4500   -16.6054    -2.1980 H            1 017200   0.0000
    47 H9           7.3445   -18.5830    -0.3105 H            1 017200   0.0000
    48 H10          5.9225   -17.5519     1.2860 H            1 017200   0.0000
    49 H11          7.0918   -16.5194     0.8028 H            1 017200   0.0000
    50 H12          5.5769   -16.3722     0.2110 H            1 017200   0.0000
    51 H13          5.0745   -19.2845    -0.2138 H            1 017200   0.0000
    52 H14          4.6899   -18.1856    -1.3588 H            1 017200   0.0000
    53 H15          5.6627   -19.4439    -1.7288 H            1 017200   0.0000
    54 H16         10.2693   -16.7417    -1.8889 H            1 017200   0.0000
    55 H17          9.3761   -18.0826    -1.6227 H            1 017200   0.0000
    56 H18          9.2069   -17.4351     0.7032 H            1 017200   0.0000
    57 H19         11.5920   -18.1307    -0.5060 H            1 017200   0.0000
    58 H20          9.7445   -15.0881     0.4053 H            1 017200   0.0000
    59 H21         11.3389   -16.3969     2.4374 H            1 017200   0.0000
    60 H22          8.7163   -14.2235     4.8650 H            1 017200   0.0000
    61 H23          8.8137   -16.5143     6.0589 H            1 017200   0.0000
    62 H24          8.3692   -15.2140     6.9412 H            1 017200   0.0000
    63 H25         10.9425   -13.9428     7.8663 H            1 017200   0.0000
    64 H26         12.6797   -15.4281     4.9217 H            1 017200   0.0000
    65 H27         13.7002   -14.2375     5.3776 H            1 017200   0.0000
    66 H28         11.5509   -13.6853     3.9954 H            1 017200   0.0000
    67 H29         12.1305   -12.6179     5.0869 H            1 017200   0.0000
    68 H30         10.1179   -12.8830     6.0830 H            1 017200   0.0000
    69 H31         11.7086   -15.2180    -0.9199 H            1 017200   0.0000
    70 H32         12.4694   -16.0394     0.2688 H            1 017200   0.0000
    71 H33         13.7600   -14.8528     1.8295 H            1 017200   0.0000
    72 H34         14.4416   -12.7887     2.8139 H            1 017200   0.0000
    73 H35         13.3058   -10.7628     2.2490 H            1 017200   0.0000
    74 H36         11.4835   -10.8126     0.7071 H            1 017200   0.0000
    75 H37         10.8050   -12.8746    -0.2838 H            1 017200   0.0000
@<TRIPOS>BOND
     1    1    2       1
     2    2    3      ar
     3    2    7      ar
     4    3    4      ar
     5    4    5      ar
     6    5    6      ar
     7    5    8       1
     8    6    7      ar
     9    8    9       2
    10    8   10       2
    11    8   11       1
    12   11   12       1
    13   11   16       1
    14   12   13       1
    15   13   14       1
    16   13   15       1
    17   16   17       1
    18   17   18       1
    19   17   19       1
    20   19   20       1
    21   19   32       1
    22   20   21      am
    23   21   22       2
    24   21   23       1
    25   23   24       1
    26   24   25       1
    27   24   31       1
    28   25   26       1
    29   26   27       1
    30   27   28       1
    31   27   31       1
    32   28   29       1
    33   29   30       1
    34   30   31       1
    35   32   38       1
    36   33   34      ar
    37   33   38      ar
    38   34   35      ar
    39   35   36      ar
    40   36   37      ar
    41   37   38      ar
    42    1   39       1
    43    1   40       1
    44    3   41       1
    45    4   42       1
    46    6   43       1
    47    7   44       1
    48   12   45       1
    49   12   46       1
    50   13   47       1
    51   14   48       1
    52   14   49       1
    53   14   50       1
    54   15   51       1
    55   15   52       1
    56   15   53       1
    57   16   54       1
    58   16   55       1
    59   17   56       1
    60   18   57       1
    61   19   58       1
    62   20   59       1
    63   24   60       1
    64   25   61       1
    65   25   62       1
    66   27   63       1
    67   29   64       1
    68   29   65       1
    69   30   66       1
    70   30   67       1
    71   31   68       1
    72   32   69       1
    73   32   70       1
    74   33   71       1
    75   34   72       1
    76   35   73       1
    77   36   74       1
    78   37   75       1
@<TRIPOS>SUBSTRUCTURE
     1 017200      1 GROUP             4 A     017     0 **** 017 A 200
