@<TRIPOS>MOLECULE
5ca1_NZO_1_ligand
   32    34     1     0     0
SMALL
NO_CHARGES


@<TRIPOS>ATOM
     1 O2         -17.5930    65.0650   -32.9780 O.2          1 NZO504   0.0000
     2 C13        -18.5710    64.3800   -33.2030 C.2          1 NZO504   0.0000
     3 O3         -19.4650    64.0900   -32.1650 O.3          1 NZO504   0.0000
     4 C14        -19.0670    64.6120   -30.9230 C.3          1 NZO504   0.0000
     5 N3         -18.8080    63.8290   -34.4850 N.am         1 NZO504   0.0000
     6 C12        -18.0430    64.1770   -35.6250 C.2          1 NZO504   0.0000
     7 N1         -17.0390    65.0470   -35.6460 N.2          1 NZO504   0.0000
     8 C8         -16.5510    65.1060   -36.9380 C.ar         1 NZO504   0.0000
     9 C7         -15.5120    65.8400   -37.5470 C.ar         1 NZO504   0.0000
    10 N2         -18.2350    63.6570   -36.8350 N.pl3        1 NZO504   0.0000
    11 C9         -17.3070    64.2260   -37.6890 C.ar         1 NZO504   0.0000
    12 C10        -17.0400    64.0650   -39.0720 C.ar         1 NZO504   0.0000
    13 C11        -16.0100    64.7920   -39.6700 C.ar         1 NZO504   0.0000
    14 C6         -15.2430    65.6860   -38.9040 C.ar         1 NZO504   0.0000
    15 C5         -14.1160    66.5070   -39.4900 C.2          1 NZO504   0.0000
    16 O1         -13.3560    67.0640   -38.7260 O.2          1 NZO504   0.0000
    17 C4         -13.8810    66.6690   -40.9770 C.2          1 NZO504   0.0000
    18 C3         -12.6480    66.9840   -41.5820 C.2          1 NZO504   0.0000
    19 C2         -12.6970    67.0850   -43.0140 C.2          1 NZO504   0.0000
    20 C1         -13.9770    66.8640   -43.5600 C.2          1 NZO504   0.0000
    21 S          -14.9680    66.5510   -42.2500 S.3          1 NZO504   0.0000
    22 H1         -19.7443    64.3713   -30.2278 H            1 NZO504   0.0000
    23 H2         -18.1787    64.2290   -30.6697 H            1 NZO504   0.0000
    24 H3         -18.9947    65.6073   -30.9874 H            1 NZO504   0.0000
    25 H4         -19.5481    63.1648   -34.5905 H            1 NZO504   0.0000
    26 H5         -14.9654    66.4747   -37.0008 H            1 NZO504   0.0000
    27 H6         -17.5887    63.4317   -39.6178 H            1 NZO504   0.0000
    28 H7         -15.8176    64.6767   -40.6445 H            1 NZO504   0.0000
    29 H8         -11.8083    67.1255   -41.0578 H            1 NZO504   0.0000
    30 H9         -11.8947    67.2935   -43.5733 H            1 NZO504   0.0000
    31 H10        -14.2373    66.8890   -44.5252 H            1 NZO504   0.0000
    32 H11        -18.9256    62.9774   -37.0824 H            1 NZO504   0.0000
@<TRIPOS>BOND
     1    1    2       2
     2    2    3       1
     3    2    5      am
     4    3    4       1
     5    5    6       1
     6    6    7       2
     7    6   10       1
     8    7    8       1
     9    8    9      ar
    10    8   11      ar
    11    9   14      ar
    12   10   11       1
    13   11   12      ar
    14   12   13      ar
    15   13   14      ar
    16   14   15       1
    17   15   16       2
    18   15   17       1
    19   17   18       2
    20   17   21       1
    21   18   19       1
    22   19   20       2
    23   20   21       1
    24    4   22       1
    25    4   23       1
    26    4   24       1
    27    5   25       1
    28   20   31       1
    29    9   26       1
    30   12   27       1
    31   13   28       1
    32   18   29       1
    33   19   30       1
    34   10   32       1
@<TRIPOS>SUBSTRUCTURE
     1 NZO504      1 GROUP             4 B     NZO     0 **** NZO B 504
