@<TRIPOS>MOLECULE
1f20_NAP_2_ligand
   77    81     1     0     0
SMALL
NO_CHARGES


@<TRIPOS>ATOM
     1 PA          14.6550    -2.0530    78.6100 P.3          1 NAP1502   0.0000
     2 O1A         14.5660    -0.6350    78.9880 O.co2        1 NAP1502   0.0000
     3 O2A         16.0450    -2.3580    78.2800 O.co2        1 NAP1502  -1.0000
     4 O5B         14.2990    -2.8470    79.7730 O.3          1 NAP1502   0.0000
     5 C5B         13.0960    -2.6240    80.5960 C.3          1 NAP1502   0.0000
     6 C4B         12.9870    -3.5720    81.7890 C.3          1 NAP1502   0.0000
     7 O4B         12.7950    -4.9330    81.2990 O.3          1 NAP1502   0.0000
     8 C3B         14.3130    -3.6380    82.5670 C.3          1 NAP1502   0.0000
     9 O3B         14.0630    -3.5260    84.0040 O.3          1 NAP1502   0.0000
    10 C2B         14.9200    -4.9850    82.1590 C.3          1 NAP1502   0.0000
    11 O2B         15.9340    -5.5380    83.1440 O.3          1 NAP1502   0.0000
    12 C1B         13.6570    -5.8440    82.0230 C.3          1 NAP1502   0.0000
    13 N9A         13.8600    -7.1290    81.3110 N.pl3        1 NAP1502   0.0000
    14 C8A         14.8860    -7.5560    80.5140 C.2          1 NAP1502   0.0000
    15 N7A         14.6920    -8.8040    80.0620 N.2          1 NAP1502   0.0000
    16 C5A         13.4920    -9.1810    80.5960 C.ar         1 NAP1502   0.0000
    17 C6A         12.6760   -10.3970    80.5330 C.ar         1 NAP1502   0.0000
    18 N6A         13.0830   -11.4850    79.8170 N.pl3        1 NAP1502   0.0000
    19 N1A         11.4430   -10.4280    81.2380 N.ar         1 NAP1502   0.0000
    20 C2A         11.0290    -9.3100    81.9700 C.ar         1 NAP1502   0.0000
    21 N3A         11.7270    -8.1220    82.0940 N.ar         1 NAP1502   0.0000
    22 C4A         12.9570    -8.1380    81.3730 C.ar         1 NAP1502   0.0000
    23 O3          13.7080    -2.3540    77.4890 O.3          1 NAP1502   0.0000
    24 PN          13.0410    -1.6030    76.3600 P.3          1 NAP1502   0.0000
    25 O1N         12.5710    -0.2680    76.7570 O.co2        1 NAP1502   0.0000
    26 O2N         11.9920    -2.4140    75.7340 O.co2        1 NAP1502  -1.0000
    27 O5D         14.0470    -1.3820    75.3000 O.3          1 NAP1502   0.0000
    28 C5D         15.0680    -0.3380    75.3470 C.3          1 NAP1502   0.0000
    29 C4D         16.1820    -0.4490    74.3110 C.3          1 NAP1502   0.0000
    30 O4D         17.0090    -1.5940    74.6810 O.3          1 NAP1502   0.0000
    31 C3D         15.7560    -0.6780    72.8540 C.3          1 NAP1502   0.0000
    32 O3D         16.5120     0.1240    72.0370 O.3          1 NAP1502   0.0000
    33 C2D         15.8690    -2.1870    72.5930 C.3          1 NAP1502   0.0000
    34 O2D         16.0010    -2.5740    71.2900 O.3          1 NAP1502   0.0000
    35 C1D         16.9770    -2.5500    73.5660 C.3          1 NAP1502   0.0000
    36 N1N         16.8180    -3.9340    74.0690 N.4          1 NAP1502   1.0000
    37 C2N         15.8680    -4.1330    75.1940 C.3          1 NAP1502   0.0000
    38 C3N         15.6910    -5.5830    75.7200 C.2          1 NAP1502   0.0000
    39 C7N         14.7240    -5.6140    76.8620 C.2          1 NAP1502   0.0000
    40 O7N         13.7110    -6.3320    76.8800 O.2          1 NAP1502   0.0000
    41 N7N         15.0290    -4.8450    77.9250 N.am         1 NAP1502   0.0000
    42 C4N         16.4660    -6.7230    75.0780 C.2          1 NAP1502   0.0000
    43 C5N         17.4510    -6.4980    73.9080 C.3          1 NAP1502   0.0000
    44 C6N         17.5590    -5.0360    73.4700 C.3          1 NAP1502   0.0000
    45 P2B         17.3890    -5.7130    83.1340 P.3          1 NAP1502   0.0000
    46 O1X         17.6630    -7.1280    83.2740 O.co2        1 NAP1502   0.0000
    47 O2X         18.0140    -5.0120    84.2460 O.co2        1 NAP1502  -1.0000
    48 O3X         17.9290    -5.2250    81.8800 O.co2        1 NAP1502  -1.0000
    49 H5B1        12.2897    -2.7493    80.0179 H            1 NAP1502   0.0000
    50 H5B2        13.1174    -1.6850    80.9392 H            1 NAP1502   0.0000
    51 H4B         12.2352    -3.3014    82.3904 H            1 NAP1502   0.0000
    52 H3B         14.9136    -2.8952    82.2713 H            1 NAP1502   0.0000
    53 H5          14.9314    -3.5702    84.4979 H            1 NAP1502   0.0000
    54 H2B         15.3515    -4.8919    81.2617 H            1 NAP1502   0.0000
    55 H1B         13.2725    -6.0202    82.9292 H            1 NAP1502   0.0000
    56 H8A         15.6886    -7.0017    80.2935 H            1 NAP1502   0.0000
    57 H6A1        12.5121   -12.3054    79.7863 H            1 NAP1502   0.0000
    58 H6A2        13.9522   -11.4619    79.3230 H            1 NAP1502   0.0000
    59 H2A         10.1516    -9.3753    82.4453 H            1 NAP1502   0.0000
    60 H5D1        15.4892    -0.3619    76.2537 H            1 NAP1502   0.0000
    61 H5D2        14.6125     0.5423    75.2141 H            1 NAP1502   0.0000
    62 H4D         16.7427     0.3779    74.3542 H            1 NAP1502   0.0000
    63 H3D         14.7968    -0.4115    72.7592 H            1 NAP1502   0.0000
    64 H16         16.3676     1.0821    72.2842 H            1 NAP1502   0.0000
    65 H2D         15.0292    -2.6062    72.9380 H            1 NAP1502   0.0000
    66 H18         15.5920    -3.4783    71.1678 H            1 NAP1502   0.0000
    67 H1D         17.8495    -2.4927    73.0808 H            1 NAP1502   0.0000
    68 H2N1        14.9710    -3.8102    74.8919 H            1 NAP1502   0.0000
    69 H2N2        16.1842    -3.5714    75.9586 H            1 NAP1502   0.0000
    70 H7N1        14.4206    -4.8246    78.7184 H            1 NAP1502   0.0000
    71 H7N2        15.8638    -4.2945    77.9208 H            1 NAP1502   0.0000
    72 H4N         16.3337    -7.6515    75.4251 H            1 NAP1502   0.0000
    73 H5N1        17.1424    -7.0401    73.1264 H            1 NAP1502   0.0000
    74 H5N2        18.3572    -6.8102    74.1933 H            1 NAP1502   0.0000
    75 H6N1        18.5245    -4.7964    73.5719 H            1 NAP1502   0.0000
    76 H6N2        17.3141    -5.0279    72.5005 H            1 NAP1502   0.0000
    77 H1N         17.5618    -3.7850    74.7205 H            1 NAP1502   0.0000
@<TRIPOS>BOND
     1    1    2      ar
     2    1    3      ar
     3    1    4       1
     4    1   23       1
     5    4    5       1
     6    5    6       1
     7    6    7       1
     8    6    8       1
     9    7   12       1
    10    8    9       1
    11    8   10       1
    12   10   11       1
    13   10   12       1
    14   11   45       1
    15   12   13       1
    16   13   14       1
    17   13   22       1
    18   14   15       2
    19   15   16       1
    20   16   17      ar
    21   16   22      ar
    22   17   18       1
    23   17   19      ar
    24   19   20      ar
    25   20   21      ar
    26   21   22      ar
    27   23   24       1
    28   24   25      ar
    29   24   26      ar
    30   24   27       1
    31   27   28       1
    32   28   29       1
    33   29   30       1
    34   29   31       1
    35   30   35       1
    36   31   32       1
    37   31   33       1
    38   33   34       1
    39   33   35       1
    40   35   36       1
    41   36   37       1
    42   36   44       1
    43   37   38       1
    44   38   39       1
    45   38   42       2
    46   39   40       2
    47   39   41      am
    48   42   43       1
    49   43   44       1
    50   45   46      ar
    51   45   47      ar
    52   45   48      ar
    53   44   76       1
    54    5   49       1
    55    5   50       1
    56    6   51       1
    57    8   52       1
    58    9   53       1
    59   10   54       1
    60   12   55       1
    61   14   56       1
    62   18   57       1
    63   18   58       1
    64   20   59       1
    65   36   77       1
    66   28   60       1
    67   28   61       1
    68   29   62       1
    69   31   63       1
    70   32   64       1
    71   33   65       1
    72   34   66       1
    73   35   67       1
    74   37   68       1
    75   37   69       1
    76   41   70       1
    77   41   71       1
    78   42   72       1
    79   43   73       1
    80   43   74       1
    81   44   75       1
@<TRIPOS>SUBSTRUCTURE
     1 NAP1502     1 GROUP             4 A     NAP     0 **** NAP A1502
