@<TRIPOS>MOLECULE
./coach420/2qo9/ligand.pdb
 31 33 0 0 0
SMALL
GASTEIGER

@<TRIPOS>ATOM
      1  PG        -9.0080    5.3650   60.1810 P.3   948  ANP948      0.4884
      2  O1G       -8.9920    5.8120   61.6240 O.3   948  ANP948     -0.1240
      3  O2G       -9.4160    3.9290   59.9880 O.3   948  ANP948     -0.1240
      4  O3G       -7.7500    5.7110   59.4310 O.2   948  ANP948     -0.2331
      5  PB       -10.0590    8.0400   59.0810 P.3   948  ANP948      0.4669
      6  O1B      -11.1980    8.8240   59.6810 O.3   948  ANP948     -0.1253
      7  O2B       -8.6500    8.5060   59.3880 O.2   948  ANP948     -0.2351
      8  N3B      -10.2680    6.3460   59.4660 N.3   948  ANP948     -0.0163
      9  PA        -9.2960    7.5290   56.3950 P.3   948  ANP948      0.2220
     10  O1A       -8.0840    6.9420   57.0580 O.3   948  ANP948     -0.4370
     11  O2A       -9.1070    8.5540   55.3020 O.2   948  ANP948     -0.5170
     12  O3A      -10.2840    8.1740   57.4880 O.3   948  ANP948     -0.2360
     13  O5'      -10.1640    6.3030   55.8000 O.3   948  ANP948     -0.3111
     14  C5'      -10.1550    4.9880   56.3580 C.3   948  ANP948      0.1813
     15  C4'       -9.7440    3.9710   55.3140 C.3   948  ANP948      0.1801
     16  O4'      -10.5590    4.1230   54.1460 O.3   948  ANP948     -0.3306
     17  C3'       -8.3000    4.1170   54.8420 C.3   948  ANP948      0.2161
     18  O3'       -7.3590    3.4610   55.6970 O.3   948  ANP948     -0.2175
     19  C2'       -8.3520    3.4880   53.4740 C.3   948  ANP948      0.2337
     20  O2'       -8.1300    2.0620   53.5560 O.3   948  ANP948     -0.2155
     21  C1'       -9.7640    3.8500   52.9990 C.3   948  ANP948      0.2409
     22  N9        -9.6990    5.0890   52.1730 N.ar  948  ANP948     -0.2693
     23  C8        -9.8020    6.3820   52.5370 C.ar  948  ANP948      0.1816
     24  N7        -9.6770    7.2300   51.4690 N.ar  948  ANP948     -0.2193
     25  C5        -9.4330    6.4490   50.4150 C.ar  948  ANP948      0.1518
     26  C6        -9.1910    6.6600   48.9880 C.ar  948  ANP948      0.1919
     27  N6        -9.1510    7.9120   48.4550 N.pl3 948  ANP948     -0.1054
     28  N1        -9.0140    5.5580   48.2460 N.ar  948  ANP948     -0.2040
     29  C2        -9.0590    4.2920   48.7110 C.ar  948  ANP948      0.2016
     30  N3        -9.2650    4.0190   50.0120 N.ar  948  ANP948     -0.2048
     31  C4        -9.4450    5.0430   50.8690 C.ar  948  ANP948      0.1692
@<TRIPOS>BOND
     1     1     4    2
     2     1     8    1
     3     1     3    1
     4     1     2    1
     5     5    12    1
     6     5     7    2
     7     5     8    1
     8     5     6    1
     9     9    11    2
    10     9    13    1
    11     9    10    1
    12     9    12    1
    13    13    14    1
    14    14    15    1
    15    15    16    1
    16    15    17    1
    17    16    21    1
    18    17    19    1
    19    17    18    1
    20    19    21    1
    21    19    20    1
    22    21    22    1
    23    22    31   ar
    24    22    23   ar
    25    23    24   ar
    26    24    25   ar
    27    25    26   ar
    28    25    31   ar
    29    26    28   ar
    30    26    27    1
    31    28    29   ar
    32    29    30   ar
    33    30    31   ar
