@<TRIPOS>MOLECULE
./coach420/966c/ligand.pdb
 48 48 0 0 0
SMALL
GASTEIGER

@<TRIPOS>ATOM
      1 ZN         13.1510   -7.6340   38.0700 Zn    265  ZN265       0.0000
      2  C2         5.3340   -7.8810   42.2350 C.2     1  RS21        0.0000
      3  C3         4.7190   -7.7530   41.0000 C.2     1  RS21        0.0000
      4  C4         5.4650   -7.5420   39.8360 C.3     1  RS21        0.0000
      5  C5         6.8450   -7.4470   39.9210 C.2     1  RS21        0.0000
      6  C6         7.4640   -7.5190   41.1630 C.2     1  RS21        0.0000
      7  O12        7.5780   -7.3090   38.7820 O.3     1  RS21        0.0000
      8  C13        8.1470   -8.4410   38.1950 C.ar    1  RS21        0.0000
      9  C14        8.1560   -9.7450   38.7750 C.ar    1  RS21        0.0000
     10  C15        8.7360  -10.8210   38.0880 C.ar    1  RS21        0.0000
     11  C16        9.2480  -10.6020   36.8260 C.ar    1  RS21        0.0000
     12  C17        9.3280   -9.3170   36.2600 C.ar    1  RS21        0.0000
     13  C18        8.7630   -8.2400   36.9520 C.ar    1  RS21        0.0000
     14  S23        9.7950  -12.0130   35.8710 S.O2    1  RS21        0.0000
     15  C24       11.5470  -12.1890   36.1860 C.3     1  RS21        0.0000
     16  O25        9.5630  -11.7280   34.4700 O.2     1  RS21        0.0000
     17  O26        9.1070  -13.1280   36.4170 O.2     1  RS21        0.0000
     18  C27       12.3670  -11.0400   35.4610 C.3     1  RS21        0.0000
     19  C28       12.6400   -9.6860   36.2030 C.3     1  RS21        0.0000
     20  O31       12.9450   -9.6110   37.3810 O.3     1  RS21        0.0000
     21  N32       12.5200   -8.5850   35.4500 N.3     1  RS21        0.0000
     22  O33       12.6700   -7.2650   35.9480 O.3     1  RS21        0.0000
     23  C36       11.8130  -13.5790   35.5150 C.3     1  RS21        0.0000
     24  C37       13.2860  -14.0460   35.7420 C.3     1  RS21        0.0000
     25  O38       13.6120  -13.9490   37.1330 O.3     1  RS21        0.0000
     26  C39       13.3480  -12.7440   37.8640 C.3     1  RS21        0.0000
     27  C40       11.8640  -12.3560   37.7120 C.3     1  RS21        0.0000
     28  H1         7.1940   -7.8270   43.2810 H       1  RS21        0.0000
     29  H2         4.7520   -8.0600   43.1270 H       1  RS21        0.0000
     30  H3         3.6430   -7.8390   40.9600 H       1  RS21        0.0000
     31  H4         4.9550   -7.4790   38.8890 H       1  RS21        0.0000
     32  H6         8.5230   -7.4460   41.2680 H       1  RS21        0.0000
     33  H14        7.7430   -9.9410   39.7530 H       1  RS21        0.0000
     34  H15        8.7750  -11.8050   38.5380 H       1  RS21        0.0000
     35  H17        9.7810   -9.1380   35.2970 H       1  RS21        0.0000
     36  H18        8.8020   -7.2430   36.5300 H       1  RS21        0.0000
     37 H271       11.8740  -10.8120   34.5260 H       1  RS21        0.0000
     38 H272       13.3310  -11.3680   35.1330 H       1  RS21        0.0000
     39  HNW       12.2380   -8.7420   34.4850 H       1  RS21        0.0000
     40  HOX       12.7770   -6.6600   35.2300 H       1  RS21        0.0000
     41 H361       11.5520  -13.6110   34.4750 H       1  RS21        0.0000
     42 H362       11.1980  -14.3360   35.9800 H       1  RS21        0.0000
     43 H371       14.0070  -13.4900   35.1760 H       1  RS21        0.0000
     44 H372       13.4260  -15.0760   35.4440 H       1  RS21        0.0000
     45 H391       14.0160  -11.9820   37.5110 H       1  RS21        0.0000
     46 H392       13.6140  -12.9000   38.8990 H       1  RS21        0.0000
     47 H401       11.2550  -13.1390   38.1410 H       1  RS21        0.0000
     48 H402       11.6320  -11.4730   38.2860 H       1  RS21        0.0000
@<TRIPOS>BOND
     1     1    20    1
     2     2     3    2
     3     2    29    1
     4     3     4    1
     5     3    30    1
     6     4    31    1
     7     4     5    1
     8     5     7    1
     9     5     6    2
    10     6    32    1
    11     7     8    1
    12     8    13   ar
    13     8     9   ar
    14     9    10   ar
    15     9    33    1
    16    10    11   ar
    17    10    34    1
    18    11    14    1
    19    11    12   ar
    20    12    35    1
    21    12    13   ar
    22    13    36    1
    23    14    16    2
    24    14    15    1
    25    14    17    2
    26    15    18    1
    27    15    23    1
    28    15    27    1
    29    18    37    1
    30    18    38    1
    31    18    19    1
    32    19    21    1
    33    19    20    1
    34    21    39    1
    35    21    22    1
    36    22    40    1
    37    23    41    1
    38    23    24    1
    39    23    42    1
    40    24    43    1
    41    24    44    1
    42    24    25    1
    43    25    26    1
    44    26    45    1
    45    26    27    1
    46    26    46    1
    47    27    47    1
    48    27    48    1
