@<TRIPOS>MOLECULE
3rhd_NAP_1_ligand
   42    44     1     0     0
SMALL
NO_CHARGES


@<TRIPOS>ATOM
     1 PA          -2.0770   -17.5110    13.5110 P.3          1 NAP500   0.0000
     2 O1A         -2.8710   -17.1290    12.3250 O.co2        1 NAP500   0.0000
     3 O2A         -1.7570   -18.9520    13.5620 O.co2        1 NAP500  -1.0000
     4 O5B         -0.7660   -16.5650    13.5940 O.3          1 NAP500   0.0000
     5 C5B          0.4670   -16.9670    14.1690 C.3          1 NAP500   0.0000
     6 C4B          1.6160   -16.5410    13.2600 C.3          1 NAP500   0.0000
     7 O4B          1.6480   -17.4490    12.1720 O.3          1 NAP500   0.0000
     8 C3B          1.4490   -15.1430    12.6510 C.3          1 NAP500   0.0000
     9 O3B          2.6810   -14.4670    12.5630 O.3          1 NAP500   0.0000
    10 C2B          0.9610   -15.4470    11.2590 C.3          1 NAP500   0.0000
    11 O2B          1.2910   -14.4410    10.3480 O.3          1 NAP500   0.0000
    12 C1B          1.6590   -16.7460    10.9530 C.3          1 NAP500   0.0000
    13 N9A          0.9750   -17.5570     9.9430 N.pl3        1 NAP500   0.0000
    14 C8A         -0.3550   -17.5230     9.5850 C.2          1 NAP500   0.0000
    15 N7A         -0.5390   -18.4670     8.6220 N.2          1 NAP500   0.0000
    16 C5A          0.6450   -19.0930     8.3750 C.ar         1 NAP500   0.0000
    17 C6A          1.0250   -20.1040     7.5020 C.ar         1 NAP500   0.0000
    18 N6A          0.1510   -20.6770     6.6810 N.pl3        1 NAP500   0.0000
    19 N1A          2.3400   -20.5230     7.4950 N.ar         1 NAP500   0.0000
    20 C2A          3.2920   -19.9560     8.3350 C.ar         1 NAP500   0.0000
    21 N3A          2.9030   -18.9530     9.1920 N.ar         1 NAP500   0.0000
    22 C4A          1.6080   -18.5250     9.2040 C.ar         1 NAP500   0.0000
    23 O3          -2.9040   -17.1510    14.8210 O.3          1 NAP500   0.0000
    24 PN          -3.7640   -15.8340    15.1430 P.3          1 NAP500   0.0000
    25 O1N         -5.0300   -16.4910    15.8950 O.co2        1 NAP500   0.0000
    26 O2N         -2.8950   -15.0850    16.0910 O.co2        1 NAP500  -1.0000
    27 O5D         -4.2860   -15.2240    13.8940 O.co2        1 NAP500  -1.0000
    28 P2B          0.1370   -13.4300     9.8980 P.3          1 NAP500   0.0000
    29 O1X          0.7510   -12.4120     8.9610 O.co2        1 NAP500   0.0000
    30 O2X         -0.4390   -12.7520    11.1100 O.co2        1 NAP500  -1.0000
    31 O3X         -0.9590   -14.1810     9.1730 O.co2        1 NAP500  -1.0000
    32 H5B1         0.4769   -17.9613    14.2747 H            1 NAP500   0.0000
    33 H5B2         0.5733   -16.5355    15.0648 H            1 NAP500   0.0000
    34 H4B          2.4788   -16.5881    13.7634 H            1 NAP500   0.0000
    35 H3B          0.7771   -14.6050    13.1600 H            1 NAP500   0.0000
    36 H5           3.0733   -14.3686    13.4776 H            1 NAP500   0.0000
    37 H2B         -0.0292   -15.5865    11.2682 H            1 NAP500   0.0000
    38 H1B          2.6013   -16.5692    10.6688 H            1 NAP500   0.0000
    39 H8A         -1.0552   -16.9171     9.9626 H            1 NAP500   0.0000
    40 H6A1         0.4488   -21.4032     6.0614 H            1 NAP500   0.0000
    41 H6A2        -0.8045   -20.3820     6.6829 H            1 NAP500   0.0000
    42 H2A          4.2408   -20.2713     8.3164 H            1 NAP500   0.0000
@<TRIPOS>BOND
     1    1    2      ar
     2    1    3      ar
     3    1    4       1
     4    1   23       1
     5    4    5       1
     6    5    6       1
     7    6    7       1
     8    6    8       1
     9    7   12       1
    10    8    9       1
    11    8   10       1
    12   10   11       1
    13   10   12       1
    14   11   28       1
    15   12   13       1
    16   13   14       1
    17   13   22       1
    18   14   15       2
    19   15   16       1
    20   16   17      ar
    21   16   22      ar
    22   17   18       1
    23   17   19      ar
    24   19   20      ar
    25   20   21      ar
    26   21   22      ar
    27   23   24       1
    28   24   25      ar
    29   24   26      ar
    30   24   27      ar
    31   28   29      ar
    32   28   30      ar
    33   28   31      ar
    34   20   42       1
    35    5   32       1
    36    5   33       1
    37    6   34       1
    38    8   35       1
    39    9   36       1
    40   10   37       1
    41   12   38       1
    42   14   39       1
    43   18   40       1
    44   18   41       1
@<TRIPOS>SUBSTRUCTURE
     1 NAP500      1 GROUP             4 A     NAP     0 **** NAP A 500
