@<TRIPOS>MOLECULE
4r43_GDP_1_ligand
   40    42     1     0     0
SMALL
NO_CHARGES


@<TRIPOS>ATOM
     1 PB         -16.4140   -14.3860   -33.0100 P.3          1 GDP701   0.0000
     2 O1B        -16.7320   -13.7720   -31.7170 O.co2        1 GDP701   0.0000
     3 O2B        -17.4890   -14.2230   -34.1030 O.co2        1 GDP701  -1.0000
     4 O3B        -16.0310   -15.8250   -32.8930 O.co2        1 GDP701  -1.0000
     5 O3A        -15.2330   -13.5240   -33.6070 O.3          1 GDP701   0.0000
     6 PA         -14.0830   -12.8650   -32.6660 P.3          1 GDP701   0.0000
     7 O1A        -14.3500   -11.4100   -32.4510 O.co2        1 GDP701   0.0000
     8 O2A        -13.8100   -13.7820   -31.5280 O.co2        1 GDP701  -1.0000
     9 O5'        -12.9800   -12.7080   -33.7690 O.3          1 GDP701   0.0000
    10 C5'        -12.6540   -13.8110   -34.5590 C.3          1 GDP701   0.0000
    11 C4'        -11.2730   -13.6180   -35.2210 C.3          1 GDP701   0.0000
    12 O4'        -11.3410   -12.6360   -36.3060 O.3          1 GDP701   0.0000
    13 C3'        -10.1680   -13.1900   -34.2640 C.3          1 GDP701   0.0000
    14 O3'         -8.9120   -13.8230   -34.6990 O.3          1 GDP701   0.0000
    15 C2'        -10.1440   -11.6710   -34.5090 C.3          1 GDP701   0.0000
    16 O2'         -8.8910   -11.0960   -34.2740 O.3          1 GDP701   0.0000
    17 C1'        -10.4960   -11.5250   -35.9920 C.3          1 GDP701   0.0000
    18 N9         -11.1910   -10.2360   -36.2070 N.pl3        1 GDP701   0.0000
    19 C8         -12.2290    -9.7290   -35.5010 C.2          1 GDP701   0.0000
    20 N7         -12.5970    -8.5400   -35.9860 N.2          1 GDP701   0.0000
    21 C5         -11.8090    -8.2780   -37.0250 C.2          1 GDP701   0.0000
    22 C6         -11.6520    -7.1960   -37.9890 C.2          1 GDP701   0.0000
    23 O6         -12.3510    -6.1920   -37.9910 O.2          1 GDP701   0.0000
    24 N1         -10.7390    -7.3430   -38.9440 N.pl3        1 GDP701   0.0000
    25 C2          -9.9570    -8.4190   -39.0220 C.2          1 GDP701   0.0000
    26 N2          -9.0230    -8.4580   -40.0050 N.pl3        1 GDP701   0.0000
    27 N3         -10.0080    -9.4290   -38.1620 N.2          1 GDP701   0.0000
    28 C4         -10.8820    -9.3920   -37.1550 C.2          1 GDP701   0.0000
    29 H5'1       -13.3471   -13.9211   -35.2714 H            1 GDP701   0.0000
    30 H5'2       -12.6319   -14.6303   -33.9860 H            1 GDP701   0.0000
    31 H4'        -11.0042   -14.4939   -35.6217 H            1 GDP701   0.0000
    32 H3'        -10.3892   -13.4120   -33.3144 H            1 GDP701   0.0000
    33 H5          -8.1722   -13.5541   -34.0823 H            1 GDP701   0.0000
    34 H2'        -10.8381   -11.2221   -33.9462 H            1 GDP701   0.0000
    35 H7          -8.5595   -10.6647   -35.1131 H            1 GDP701   0.0000
    36 H1'         -9.6641   -11.5612   -36.5458 H            1 GDP701   0.0000
    37 H9         -12.6616   -10.1830   -34.7221 H            1 GDP701   0.0000
    38 H10        -10.6355    -6.6207   -39.6278 H            1 GDP701   0.0000
    39 H11         -8.4203    -9.2513   -40.0908 H            1 GDP701   0.0000
    40 H12         -8.9372    -7.6934   -40.6438 H            1 GDP701   0.0000
@<TRIPOS>BOND
     1    1    2      ar
     2    1    3      ar
     3    1    4      ar
     4    1    5       1
     5    5    6       1
     6    6    7      ar
     7    6    8      ar
     8    6    9       1
     9    9   10       1
    10   10   11       1
    11   11   12       1
    12   11   13       1
    13   12   17       1
    14   13   14       1
    15   13   15       1
    16   15   16       1
    17   15   17       1
    18   17   18       1
    19   18   19       1
    20   18   28       1
    21   19   20       2
    22   20   21       1
    23   21   22       1
    24   21   28       2
    25   22   23       2
    26   22   24       1
    27   24   25       1
    28   25   26       1
    29   25   27       2
    30   27   28       1
    31   26   40       1
    32   26   39       1
    33   24   38       1
    34   10   29       1
    35   10   30       1
    36   11   31       1
    37   13   32       1
    38   14   33       1
    39   15   34       1
    40   16   35       1
    41   17   36       1
    42   19   37       1
@<TRIPOS>SUBSTRUCTURE
     1 GDP701      1 GROUP             4 A     GDP     0 **** GDP A 701
