@<TRIPOS>MOLECULE
./coach420/1onh/ligand.pdb
 21 23 0 0 0
SMALL
GASTEIGER

@<TRIPOS>ATOM
      1  S1        21.1470   21.6840    6.6230 S.3   400  WY4400     -0.1059
      2  C2        20.1030   22.4350    5.3830 C.2   400  WY4400      0.0540
      3  C3        19.2750   21.6670    4.6560 C.2   400  WY4400      0.1515
      4  N4        19.2190   20.2710    4.8640 N.pl3 400  WY4400     -0.2305
      5  C5        18.8790   19.4950    5.9510 C.3   400  WY4400      0.1214
      6  C6        19.2840   19.7610    7.2160 C.3   400  WY4400      0.1023
      7  C7        19.2270   18.6840    8.1520 C.2   400  WY4400      0.2100
      8  O8        19.2360   18.7880    9.3680 O.2   400  WY4400     -0.2882
      9  C31       18.4710   22.2020    3.6040 C.2   400  WY4400      0.4028
     10  O32       17.8390   21.4540    2.8540 O.co2 400  WY4400     -0.2391
     11  O33       18.4490   23.5210    3.4430 O.co2 400  WY4400     -0.2391
     12  C61       19.8670   21.0310    7.7230 C.3   400  WY4400      0.1025
     13  C62       18.8590   22.1280    8.0660 C.ar  400  WY4400      0.0880
     14  N63       19.0470   23.1480    8.9180 N.ar  400  WY4400     -0.2318
     15  C64       17.9420   23.8420    8.9700 C.ar  400  WY4400      0.1503
     16  N65       17.0150   23.2960    8.1190 N.ar  400  WY4400     -0.3094
     17  C66       17.5980   22.2210    7.5350 C.ar  400  WY4400      0.0926
     18  C67       17.6240   25.0450    9.8010 C.3   400  WY4400      0.2055
     19  O68       16.1860   25.2310    9.8050 O.3   400  WY4400     -0.3437
     20  C69       15.6130   25.2590    8.4790 C.3   400  WY4400      0.1672
     21  C70       15.6330   23.8000    7.9390 C.3   400  WY4400      0.1393
@<TRIPOS>BOND
     1     1     2    1
     2     1    12    1
     3     2     3    2
     4     3     9    1
     5     3     4    1
     6     4     5    1
     7     5     6    1
     8     6    12    1
     9     6     7    1
    10     7     8    2
    11     9    10   ar
    12     9    11   ar
    13    12    13    1
    14    13    17   ar
    15    13    14   ar
    16    14    15   ar
    17    15    16   ar
    18    15    18    1
    19    16    17   ar
    20    16    21    1
    21    18    19    1
    22    19    20    1
    23    20    21    1
