@<TRIPOS>MOLECULE
3hk1_B64_1_ligand
   34    35     1     0     0
SMALL
NO_CHARGES


@<TRIPOS>ATOM
     1 C1          10.2870    19.4680    -2.7600 C.2          1 B64132   0.0000
     2 C2          11.5380    18.6230    -2.7280 C.3          1 B64132   0.0000
     3 C3          11.9650    18.1150    -4.0930 C.3          1 B64132   0.0000
     4 O1          10.3950    20.5690    -2.2000 O.co2        1 B64132   0.0000
     5 O2           9.2250    19.0740    -3.3220 O.co2        1 B64132  -1.0000
     6 O7          11.3120    20.2010    -5.3400 O.2          1 B64132   0.0000
     7 N8          12.8070    18.7190    -6.2890 N.am         1 B64132   0.0000
     8 C9          12.9560    19.3520    -7.4870 C.2          1 B64132   0.0000
     9 C10         13.9350    18.7420    -8.3870 C.2          1 B64132   0.0000
    10 S11         13.9610    19.6590    -9.8820 S.3          1 B64132   0.0000
    11 C12         12.6220    20.6750    -9.3110 C.2          1 B64132   0.0000
    12 C13         12.1850    20.4130    -8.0030 C.2          1 B64132   0.0000
    13 C14         14.8620    17.6370    -8.1270 C.2          1 B64132   0.0000
    14 O15         15.7540    17.2440    -9.1790 O.3          1 B64132   0.0000
    15 C16         16.6570    16.1790    -8.8820 C.3          1 B64132   0.0000
    16 O17         14.9240    17.1030    -7.0200 O.2          1 B64132   0.0000
    17 C18         12.1090    21.7390   -10.2140 C.2          1 B64132   0.0000
    18 C19         11.1580    22.7110    -9.9010 C.2          1 B64132   0.0000
    19 C20         10.9470    23.5530   -11.0240 C.2          1 B64132   0.0000
    20 C21         11.7010    23.2960   -12.1910 C.2          1 B64132   0.0000
    21 S22         12.6660    21.8290   -11.8870 S.3          1 B64132   0.0000
    22 CS1         12.0340    19.1870    -5.2510 C.2          1 B64132   0.0000
    23 H1          11.3717    17.8348    -2.1355 H            1 B64132   0.0000
    24 H2          12.2817    19.1739    -2.3491 H            1 B64132   0.0000
    25 H3          11.3152    17.4077    -4.3714 H            1 B64132   0.0000
    26 H4          12.8752    17.7121    -3.9967 H            1 B64132   0.0000
    27 H5          13.2928    17.8552    -6.1552 H            1 B64132   0.0000
    28 H6          11.4536    20.8954    -7.5210 H            1 B64132   0.0000
    29 H7          17.2262    15.9916    -9.6826 H            1 B64132   0.0000
    30 H8          17.2397    16.4408    -8.1126 H            1 B64132   0.0000
    31 H9          16.1377    15.3586    -8.6428 H            1 B64132   0.0000
    32 H10         10.6952    22.8008    -9.0191 H            1 B64132   0.0000
    33 H11         10.2866    24.3032   -10.9904 H            1 B64132   0.0000
    34 H12         11.6944    23.8372   -13.0319 H            1 B64132   0.0000
@<TRIPOS>BOND
     1    1    2       1
     2    1    4      ar
     3    1    5      ar
     4    2    3       1
     5    3   22       1
     6    6   22       2
     7    7    8       1
     8    7   22      am
     9    8    9       2
    10    8   12       1
    11    9   10       1
    12    9   13       1
    13   10   11       1
    14   11   12       2
    15   11   17       1
    16   13   14       1
    17   13   16       2
    18   14   15       1
    19   17   18       2
    20   17   21       1
    21   18   19       1
    22   19   20       2
    23   20   21       1
    24    2   23       1
    25    2   24       1
    26    3   25       1
    27    3   26       1
    28   20   34       1
    29    7   27       1
    30   12   28       1
    31   15   29       1
    32   15   30       1
    33   15   31       1
    34   18   32       1
    35   19   33       1
@<TRIPOS>SUBSTRUCTURE
     1 B64132      1 GROUP             4 A     B64     0 **** B64 A 132
