@<TRIPOS>MOLECULE
3f4b_TCL_2_ligand
   24    25     1     0     0
SMALL
NO_CHARGES


@<TRIPOS>ATOM
     1 C1          -5.1050    -3.1400    29.3420 C.ar         1 TCL500   0.0000
     2 C2          -6.4800    -3.2740    29.2020 C.ar         1 TCL500   0.0000
     3 C6          -4.6080    -2.4060    30.4110 C.ar         1 TCL500   0.0000
     4 C5          -5.4660    -1.8180    31.3250 C.ar         1 TCL500   0.0000
     5 C4          -6.8400    -1.9660    31.1920 C.ar         1 TCL500   0.0000
     6 C3          -7.3430    -2.6870    30.1230 C.ar         1 TCL500   0.0000
     7 C11         -4.4520     2.9560    32.1790 C.ar         1 TCL500   0.0000
     8 C10         -4.2050     2.3110    33.3870 C.ar         1 TCL500   0.0000
     9 C9          -4.3730     0.9370    33.4810 C.ar         1 TCL500   0.0000
    10 C8          -4.7830     0.2280    32.3540 C.ar         1 TCL500   0.0000
    11 C12         -4.8630     2.2400    31.0650 C.ar         1 TCL500   0.0000
    12 C13         -5.0340     0.8720    31.1540 C.ar         1 TCL500   0.0000
    13 O7          -4.9690    -1.1220    32.4030 O.3          1 TCL500   0.0000
    14 CL14        -7.1740    -4.1980    27.8400 Cl           1 TCL500   0.0000
    15 CL15        -4.2330     4.7280    32.0460 Cl           1 TCL500   0.0000
    16 CL16        -4.0500     0.1280    35.0690 Cl           1 TCL500   0.0000
    17 O17         -3.2690    -2.2600    30.5600 O.3          1 TCL500   0.0000
    18 H1          -4.4832    -3.5649    28.6841 H            1 TCL500   0.0000
    19 H2          -7.4596    -1.5561    31.8614 H            1 TCL500   0.0000
    20 H3          -8.3318    -2.7868    30.0117 H            1 TCL500   0.0000
    21 H4          -3.9075     2.8359    34.1845 H            1 TCL500   0.0000
    22 H5          -5.0350     2.7121    30.2004 H            1 TCL500   0.0000
    23 H6          -5.3372     0.3500    30.3567 H            1 TCL500   0.0000
    24 H7          -2.9060    -1.7324    31.3280 H            1 TCL500   0.0000
@<TRIPOS>BOND
     1    1    2      ar
     2    1    3      ar
     3    2    6      ar
     4    2   14       1
     5    3    4      ar
     6    3   17       1
     7    4    5      ar
     8    4   13       1
     9    5    6      ar
    10    7    8      ar
    11    7   11      ar
    12    7   15       1
    13    8    9      ar
    14    9   10      ar
    15    9   16       1
    16   10   12      ar
    17   10   13       1
    18   11   12      ar
    19    1   18       1
    20    5   19       1
    21    6   20       1
    22    8   21       1
    23   11   22       1
    24   12   23       1
    25   17   24       1
@<TRIPOS>SUBSTRUCTURE
     1 TCL500      1 GROUP             4 B     TCL     0 **** TCL B 500
