@<TRIPOS>MOLECULE
2v52_LAB_1_ligand
   56    58     1     0     0
SMALL
NO_CHARGES


@<TRIPOS>ATOM
     1 O5          -3.3130   -12.4280     7.7880 O.2          1 LAB1376   0.0000
     2 C18         -2.7020   -11.4380     8.1920 C.2          1 LAB1376   0.0000
     3 N1          -2.8830   -10.8820     9.3750 N.am         1 LAB1376   0.0000
     4 C16         -2.2720    -9.6030     9.6040 C.3          1 LAB1376   0.0000
     5 C17         -1.0830    -9.4760     8.5910 C.3          1 LAB1376   0.0000
     6 S1          -1.5410   -10.5590     7.2660 S.3          1 LAB1376   0.0000
     7 C15         -3.2790    -8.4620     9.4440 C.3          1 LAB1376   0.0000
     8 O4          -3.7170    -8.2730     8.0900 O.3          1 LAB1376   0.0000
     9 C14         -4.5790    -8.7950    10.2170 C.3          1 LAB1376   0.0000
    10 C13         -5.4290    -7.5590    10.5440 C.3          1 LAB1376   0.0000
    11 O2          -6.1000    -7.0530     9.3920 O.3          1 LAB1376   0.0000
    12 C12         -4.5710    -6.4130    11.0940 C.3          1 LAB1376   0.0000
    13 C11         -3.4960    -6.1410    10.0390 C.3          1 LAB1376   0.0000
    14 O3          -2.6310    -7.2980     9.9670 O.3          1 LAB1376   0.0000
    15 C10         -2.7280    -4.8640    10.3580 C.3          1 LAB1376   0.0000
    16 C9          -1.8750    -4.4430     9.1410 C.3          1 LAB1376   0.0000
    17 C8          -2.6820    -4.0200     7.9080 C.3          1 LAB1376   0.0000
    18 C20         -1.6710    -3.3650     6.9230 C.3          1 LAB1376   0.0000
    19 C7          -3.7940    -3.0650     8.2100 C.2          1 LAB1376   0.0000
    20 C6          -5.0880    -3.2050     7.9250 C.2          1 LAB1376   0.0000
    21 C5          -5.7560    -4.3750     7.2230 C.3          1 LAB1376   0.0000
    22 C4          -6.9890    -4.7020     8.0960 C.3          1 LAB1376   0.0000
    23 C3          -7.8390    -5.7410     7.3970 C.2          1 LAB1376   0.0000
    24 C19         -8.6410    -5.3740     6.1760 C.3          1 LAB1376   0.0000
    25 C2          -7.9570    -7.0460     7.7570 C.2          1 LAB1376   0.0000
    26 C1          -7.2700    -7.6840     8.8770 C.2          1 LAB1376   0.0000
    27 O1          -7.6440    -8.7440     9.3350 O.2          1 LAB1376   0.0000
    28 H1          -3.4244   -11.3337    10.0841 H            1 LAB1376   0.0000
    29 H2          -1.9064    -9.5823    10.5345 H            1 LAB1376   0.0000
    30 H3          -0.2242    -9.7697     9.0108 H            1 LAB1376   0.0000
    31 H4          -0.9905    -8.5348     8.2662 H            1 LAB1376   0.0000
    32 H5          -2.9294    -8.0614     7.5113 H            1 LAB1376   0.0000
    33 H6          -4.3310    -9.2449    11.0750 H            1 LAB1376   0.0000
    34 H7          -5.1278    -9.4185     9.6602 H            1 LAB1376   0.0000
    35 H8          -6.1114    -7.8093    11.2308 H            1 LAB1376   0.0000
    36 H9          -4.1476    -6.6812    11.9593 H            1 LAB1376   0.0000
    37 H10         -5.1317    -5.5973    11.2360 H            1 LAB1376   0.0000
    38 H11         -3.9449    -6.0266     9.1528 H            1 LAB1376   0.0000
    39 H12         -2.1291    -5.0249    11.1425 H            1 LAB1376   0.0000
    40 H13         -3.3755    -4.1341    10.5771 H            1 LAB1376   0.0000
    41 H14         -1.2961    -5.2168     8.8838 H            1 LAB1376   0.0000
    42 H15         -1.2994    -3.6728     9.4157 H            1 LAB1376   0.0000
    43 H16         -3.0667    -4.8372     7.4788 H            1 LAB1376   0.0000
    44 H17         -2.1528    -3.0707     6.0976 H            1 LAB1376   0.0000
    45 H18         -1.2448    -2.5732     7.3604 H            1 LAB1376   0.0000
    46 H19         -0.9657    -4.0302     6.6779 H            1 LAB1376   0.0000
    47 H20         -3.5352    -2.2220     8.6815 H            1 LAB1376   0.0000
    48 H21         -5.6873    -2.4550     8.2049 H            1 LAB1376   0.0000
    49 H22         -5.1374    -5.1594     7.1780 H            1 LAB1376   0.0000
    50 H23         -6.0365    -4.1182     6.2981 H            1 LAB1376   0.0000
    51 H24         -7.5272    -3.8712     8.2377 H            1 LAB1376   0.0000
    52 H25         -6.6867    -5.0582     8.9802 H            1 LAB1376   0.0000
    53 H26         -9.1378    -6.1781     5.8494 H            1 LAB1376   0.0000
    54 H27         -9.2922    -4.6519     6.4096 H            1 LAB1376   0.0000
    55 H28         -8.0254    -5.0483     5.4584 H            1 LAB1376   0.0000
    56 H29         -8.5662    -7.6185     7.2082 H            1 LAB1376   0.0000
@<TRIPOS>BOND
     1    1    2       2
     2    2    3      am
     3    2    6       1
     4    3    4       1
     5    4    5       1
     6    4    7       1
     7    5    6       1
     8    7    8       1
     9    7    9       1
    10    7   14       1
    11    9   10       1
    12   10   11       1
    13   10   12       1
    14   11   26       1
    15   12   13       1
    16   13   14       1
    17   13   15       1
    18   15   16       1
    19   16   17       1
    20   17   18       1
    21   17   19       1
    22   19   20       2
    23   20   21       1
    24   21   22       1
    25   22   23       1
    26   23   24       1
    27   23   25       2
    28   25   26       1
    29   26   27       2
    30    3   28       1
    31    4   29       1
    32    5   30       1
    33    5   31       1
    34    8   32       1
    35    9   33       1
    36    9   34       1
    37   10   35       1
    38   12   36       1
    39   12   37       1
    40   13   38       1
    41   15   39       1
    42   15   40       1
    43   16   41       1
    44   16   42       1
    45   17   43       1
    46   18   44       1
    47   18   45       1
    48   18   46       1
    49   19   47       1
    50   20   48       1
    51   21   49       1
    52   21   50       1
    53   22   51       1
    54   22   52       1
    55   24   53       1
    56   24   54       1
    57   24   55       1
    58   25   56       1
@<TRIPOS>SUBSTRUCTURE
     1 LAB1376     1 GROUP             4 B     LAB     0 **** LAB B1376
