@<TRIPOS>MOLECULE
3p19_NDP_2_ligand
   73    77     1     0     0
SMALL
NO_CHARGES


@<TRIPOS>ATOM
     1 PA          16.2820    57.2800   211.0180 P.3          1 NDP2001   0.0000
     2 O1A         17.5220    56.6860   211.6040 O.co2        1 NDP2001   0.0000
     3 O2A         15.8850    58.6840   211.2920 O.co2        1 NDP2001  -1.0000
     4 O5B         15.0930    56.3240   211.5350 O.3          1 NDP2001   0.0000
     5 C5B         15.4910    55.0680   212.0860 C.3          1 NDP2001   0.0000
     6 C4B         14.3820    54.5160   212.9550 C.3          1 NDP2001   0.0000
     7 O4B         14.5510    53.0780   213.0090 O.3          1 NDP2001   0.0000
     8 C3B         14.7040    55.0460   214.3460 C.3          1 NDP2001   0.0000
     9 O3B         13.4900    55.2740   215.0400 O.3          1 NDP2001   0.0000
    10 C2B         15.3890    53.8760   215.0210 C.3          1 NDP2001   0.0000
    11 O2B         15.0220    53.9610   216.3920 O.3          1 NDP2001   0.0000
    12 C1B         14.6500    52.7010   214.3820 C.3          1 NDP2001   0.0000
    13 N9A         15.3780    51.4480   214.5800 N.pl3        1 NDP2001   0.0000
    14 C8A         16.6370    51.2030   214.1640 C.2          1 NDP2001   0.0000
    15 N7A         17.0040    49.9710   214.5220 N.2          1 NDP2001   0.0000
    16 C5A         15.9650    49.4280   215.1740 C.ar         1 NDP2001   0.0000
    17 C6A         15.7590    48.1880   215.7460 C.ar         1 NDP2001   0.0000
    18 N6A         16.7490    47.2960   215.6980 N.pl3        1 NDP2001   0.0000
    19 N1A         14.5580    47.9170   216.3350 N.ar         1 NDP2001   0.0000
    20 C2A         13.5860    48.8300   216.3470 C.ar         1 NDP2001   0.0000
    21 N3A         13.7520    50.0260   215.8000 N.ar         1 NDP2001   0.0000
    22 C4A         14.9340    50.3580   215.2140 C.ar         1 NDP2001   0.0000
    23 O3          16.3260    57.0510   209.4300 O.3          1 NDP2001   0.0000
    24 PN          15.0870    57.0450   208.4090 P.3          1 NDP2001   0.0000
    25 O1N         15.6740    57.5190   207.1280 O.co2        1 NDP2001   0.0000
    26 O2N         13.9030    57.7280   208.9690 O.co2        1 NDP2001  -1.0000
    27 O5D         14.7910    55.4360   208.3150 O.3          1 NDP2001   0.0000
    28 C5D         13.3970    54.9530   208.2290 C.3          1 NDP2001   0.0000
    29 C4D         13.2170    54.1090   206.9490 C.3          1 NDP2001   0.0000
    30 O4D         13.3450    54.9550   205.7700 O.3          1 NDP2001   0.0000
    31 C3D         14.3870    53.1170   206.9060 C.3          1 NDP2001   0.0000
    32 O3D         13.9090    51.7740   206.6820 O.3          1 NDP2001   0.0000
    33 C2D         15.2280    53.6410   205.7270 C.3          1 NDP2001   0.0000
    34 O2D         15.9960    52.5910   205.1120 O.3          1 NDP2001   0.0000
    35 C1D         14.1290    54.1850   204.8220 C.3          1 NDP2001   0.0000
    36 N1N         14.5990    55.0470   203.7160 N.ar         1 NDP2001   1.0000
    37 C2N         15.1790    56.2790   204.0160 C.ar         1 NDP2001   0.0000
    38 C3N         15.6440    57.1070   203.0100 C.ar         1 NDP2001   0.0000
    39 C7N         16.2910    58.4650   203.3850 C.2          1 NDP2001   0.0000
    40 O7N         16.7250    59.3160   202.4250 O.2          1 NDP2001   0.0000
    41 N7N         16.3860    58.7680   204.6930 N.am         1 NDP2001   0.0000
    42 C4N         15.5190    56.7150   201.6710 C.ar         1 NDP2001   0.0000
    43 C5N         14.9340    55.4870   201.3540 C.ar         1 NDP2001   0.0000
    44 C6N         14.4770    54.6360   202.3650 C.ar         1 NDP2001   0.0000
    45 P2B         15.8430    53.4330   217.6460 P.3          1 NDP2001   0.0000
    46 O1X         15.4200    54.2710   218.7920 O.co2        1 NDP2001   0.0000
    47 O2X         15.5690    51.8830   217.8640 O.co2        1 NDP2001  -1.0000
    48 O3X         17.4020    53.5100   217.3840 O.co2        1 NDP2001  -1.0000
    49 H5B1        16.3147    55.1939   212.6389 H            1 NDP2001   0.0000
    50 H5B2        15.6825    54.4255   211.3440 H            1 NDP2001   0.0000
    51 H4B         13.4726    54.7867   212.6393 H            1 NDP2001   0.0000
    52 H3B         15.2837    55.8603   214.3173 H            1 NDP2001   0.0000
    53 H5          13.6899    55.6226   215.9557 H            1 NDP2001   0.0000
    54 H2B         16.3778    53.8533   214.8733 H            1 NDP2001   0.0000
    55 H1B         13.7345    52.6244   214.7769 H            1 NDP2001   0.0000
    56 H8A         17.2111    51.8493   213.6613 H            1 NDP2001   0.0000
    57 H6A1        16.6264    46.3906   216.1044 H            1 NDP2001   0.0000
    58 H6A2        17.6141    47.5325   215.2556 H            1 NDP2001   0.0000
    59 H2A         12.7118    48.6073   216.7786 H            1 NDP2001   0.0000
    60 H5D1        12.7751    55.7356   208.2013 H            1 NDP2001   0.0000
    61 H5D2        13.1900    54.3909   209.0297 H            1 NDP2001   0.0000
    62 H4D         12.3392    53.6300   206.9544 H            1 NDP2001   0.0000
    63 H3D         14.9127    53.1620   207.7555 H            1 NDP2001   0.0000
    64 H16         12.9935    51.6766   207.0723 H            1 NDP2001   0.0000
    65 H2D         15.8288    54.3811   206.0292 H            1 NDP2001   0.0000
    66 H18         16.6159    52.1919   205.7876 H            1 NDP2001   0.0000
    67 H1D         13.5815    53.4312   204.4586 H            1 NDP2001   0.0000
    68 H2N         15.2598    56.5676   204.9700 H            1 NDP2001   0.0000
    69 H7N1        16.7969    59.6343   204.9770 H            1 NDP2001   0.0000
    70 H7N2        16.0456    58.1268   205.3808 H            1 NDP2001   0.0000
    71 H4N         15.8487    57.3146   200.9418 H            1 NDP2001   0.0000
    72 H5N         14.8412    55.2142   200.3964 H            1 NDP2001   0.0000
    73 H6N         14.0703    53.7510   202.1384 H            1 NDP2001   0.0000
@<TRIPOS>BOND
     1    1    2      ar
     2    1    3      ar
     3    1    4       1
     4    1   23       1
     5    4    5       1
     6    5    6       1
     7    6    7       1
     8    6    8       1
     9    7   12       1
    10    8    9       1
    11    8   10       1
    12   10   11       1
    13   10   12       1
    14   11   45       1
    15   12   13       1
    16   13   14       1
    17   13   22       1
    18   14   15       2
    19   15   16       1
    20   16   17      ar
    21   16   22      ar
    22   17   18       1
    23   17   19      ar
    24   19   20      ar
    25   20   21      ar
    26   21   22      ar
    27   23   24       1
    28   24   25      ar
    29   24   26      ar
    30   24   27       1
    31   27   28       1
    32   28   29       1
    33   29   30       1
    34   29   31       1
    35   30   35       1
    36   31   32       1
    37   31   33       1
    38   33   34       1
    39   33   35       1
    40   35   36       1
    41   36   37      ar
    42   36   44      ar
    43   37   38      ar
    44   38   39       1
    45   38   42      ar
    46   39   40       2
    47   39   41      am
    48   42   43      ar
    49   43   44      ar
    50   45   46      ar
    51   45   47      ar
    52   45   48      ar
    53   43   72       1
    54    5   49       1
    55    5   50       1
    56    6   51       1
    57    8   52       1
    58    9   53       1
    59   10   54       1
    60   12   55       1
    61   14   56       1
    62   18   57       1
    63   18   58       1
    64   20   59       1
    65   44   73       1
    66   28   60       1
    67   28   61       1
    68   29   62       1
    69   31   63       1
    70   32   64       1
    71   33   65       1
    72   34   66       1
    73   35   67       1
    74   37   68       1
    75   41   69       1
    76   41   70       1
    77   42   71       1
@<TRIPOS>SUBSTRUCTURE
     1 NDP2001     1 GROUP             4 B     NDP     0 **** NDP B2001
