@<TRIPOS>MOLECULE
1i5e_U5P_1_ligand
   32    33     1     0     0
SMALL
NO_CHARGES


@<TRIPOS>ATOM
     1 N1           8.8350    64.3790    47.1420 N.pl3        1 U5P250   0.0000
     2 C2          10.1000    63.8010    47.2250 C.2          1 U5P250   0.0000
     3 N3          10.4390    63.1840    48.4250 N.pl3        1 U5P250   0.0000
     4 C4           9.5620    63.1510    49.4880 C.2          1 U5P250   0.0000
     5 C5           8.2830    63.7660    49.3370 C.2          1 U5P250   0.0000
     6 C6           8.0170    64.3530    48.1240 C.2          1 U5P250   0.0000
     7 O2          10.9530    63.8280    46.2060 O.2          1 U5P250   0.0000
     8 O4           9.8960    62.5970    50.5410 O.2          1 U5P250   0.0000
     9 C1'          8.4530    65.0500    45.8200 C.3          1 U5P250   0.0000
    10 C2'          7.4360    64.2200    45.0320 C.3          1 U5P250   0.0000
    11 O2'          8.0660    63.4040    44.1310 O.3          1 U5P250   0.0000
    12 C3'          6.4190    65.2810    44.4640 C.3          1 U5P250   0.0000
    13 C4'          6.6290    66.4940    45.3060 C.3          1 U5P250   0.0000
    14 O3'          6.8600    65.5260    43.0830 O.3          1 U5P250   0.0000
    15 O4'          7.8750    66.3350    46.1150 O.3          1 U5P250   0.0000
    16 C5'          5.5730    66.9010    46.2360 C.3          1 U5P250   0.0000
    17 O5'          4.7410    65.7970    46.6590 O.3          1 U5P250   0.0000
    18 P            3.5600    66.0960    47.6430 P.3          1 U5P250   0.0000
    19 O1P          2.6860    67.1000    46.9120 O.co2        1 U5P250   0.0000
    20 O2P          2.8340    64.7900    47.8750 O.co2        1 U5P250  -1.0000
    21 O3P          4.1470    66.6410    48.9260 O.co2        1 U5P250  -1.0000
    22 H1          11.3377    62.7555    48.5183 H            1 U5P250   0.0000
    23 H2           7.6125    63.7694    50.0789 H            1 U5P250   0.0000
    24 H3           7.1252    64.7884    48.0011 H            1 U5P250   0.0000
    25 H1'          9.2752    65.1777    45.2653 H            1 U5P250   0.0000
    26 H2'          6.9442    63.6395    45.6809 H            1 U5P250   0.0000
    27 H6           7.3838    62.8725    43.6288 H            1 U5P250   0.0000
    28 H3'          5.4745    64.9549    44.5043 H            1 U5P250   0.0000
    29 H4'          6.7810    67.2606    44.6821 H            1 U5P250   0.0000
    30 H9           6.4015    64.8846    42.4679 H            1 U5P250   0.0000
    31 H5'1         4.9954    67.5816    45.7852 H            1 U5P250   0.0000
    32 H5'2         5.9987    67.3079    47.0442 H            1 U5P250   0.0000
@<TRIPOS>BOND
     1    1    2       1
     2    1    6       1
     3    1    9       1
     4    2    3       1
     5    2    7       2
     6    3    4       1
     7    4    5       1
     8    4    8       2
     9    5    6       2
    10    9   10       1
    11    9   15       1
    12   10   11       1
    13   10   12       1
    14   12   13       1
    15   12   14       1
    16   13   15       1
    17   13   16       1
    18   16   17       1
    19   17   18       1
    20   18   19      ar
    21   18   20      ar
    22   18   21      ar
    23    3   22       1
    24    5   23       1
    25    6   24       1
    26    9   25       1
    27   10   26       1
    28   11   27       1
    29   12   28       1
    30   13   29       1
    31   14   30       1
    32   16   31       1
    33   16   32       1
@<TRIPOS>SUBSTRUCTURE
     1 U5P250      1 GROUP             4 A     U5P     0 **** U5P A 250
