@<TRIPOS>MOLECULE
3wyc_NAP_2_ligand
   73    77     1     0     0
SMALL
NO_CHARGES


@<TRIPOS>ATOM
     1 PA           4.5650    21.6490   -29.9060 P.3          1 NAP1001   0.0000
     2 O1A          4.3050    20.5960   -29.0110 O.co2        1 NAP1001   0.0000
     3 O2A          4.7910    21.3040   -31.2890 O.co2        1 NAP1001  -1.0000
     4 O5B          3.4100    22.6580   -29.7470 O.3          1 NAP1001   0.0000
     5 C5B          3.3460    23.8210   -30.5370 C.3          1 NAP1001   0.0000
     6 C4B          1.9550    24.1950   -30.9850 C.3          1 NAP1001   0.0000
     7 O4B          1.4830    23.2580   -31.9120 O.3          1 NAP1001   0.0000
     8 C3B          0.9520    24.2330   -29.8590 C.3          1 NAP1001   0.0000
     9 O3B          0.9110    25.5270   -29.3300 O.3          1 NAP1001   0.0000
    10 C2B         -0.3430    23.7690   -30.5090 C.3          1 NAP1001   0.0000
    11 O2B         -1.1700    24.8270   -30.9260 O.3          1 NAP1001   0.0000
    12 C1B          0.1280    23.0180   -31.7210 C.3          1 NAP1001   0.0000
    13 N9A         -0.0430    21.5790   -31.5190 N.pl3        1 NAP1001   0.0000
    14 C8A          0.3990    20.8540   -30.4890 C.2          1 NAP1001   0.0000
    15 N7A          0.0730    19.5690   -30.6120 N.2          1 NAP1001   0.0000
    16 C5A         -0.5680    19.4590   -31.7400 C.ar         1 NAP1001   0.0000
    17 C6A         -1.1840    18.3530   -32.4630 C.ar         1 NAP1001   0.0000
    18 N6A         -1.1510    17.1260   -31.9680 N.pl3        1 NAP1001   0.0000
    19 N1A         -1.7670    18.6320   -33.6220 N.ar         1 NAP1001   0.0000
    20 C2A         -1.8060    19.8530   -34.1180 C.ar         1 NAP1001   0.0000
    21 N3A         -1.2660    20.9050   -33.5280 N.ar         1 NAP1001   0.0000
    22 C4A         -0.6480    20.7720   -32.3470 C.ar         1 NAP1001   0.0000
    23 O3           5.8270    22.4570   -29.5180 O.3          1 NAP1001   0.0000
    24 PN           6.4650    22.5600   -28.0850 P.3          1 NAP1001   0.0000
    25 O1N          7.2550    21.4250   -27.7790 O.co2        1 NAP1001   0.0000
    26 O2N          5.3530    22.9100   -27.3010 O.co2        1 NAP1001  -1.0000
    27 O5D          7.4410    23.7550   -28.1880 O.3          1 NAP1001   0.0000
    28 C5D          7.0170    25.0510   -28.4730 C.3          1 NAP1001   0.0000
    29 C4D          8.1940    25.9630   -28.7150 C.3          1 NAP1001   0.0000
    30 O4D          8.8290    26.2510   -27.5110 O.3          1 NAP1001   0.0000
    31 C3D          9.2710    25.3440   -29.5610 C.3          1 NAP1001   0.0000
    32 O3D          9.0430    25.6650   -30.8960 O.3          1 NAP1001   0.0000
    33 C2D         10.5390    25.9880   -29.0890 C.3          1 NAP1001   0.0000
    34 O2D         10.9080    27.0520   -29.9480 O.3          1 NAP1001   0.0000
    35 C1D         10.1680    26.5530   -27.7230 C.3          1 NAP1001   0.0000
    36 N1N         11.0170    26.0020   -26.6810 N.ar         1 NAP1001   1.0000
    37 C2N         11.8440    26.8230   -26.0790 C.ar         1 NAP1001   0.0000
    38 C3N         12.7150    26.4390   -25.0900 C.ar         1 NAP1001   0.0000
    39 C7N         13.6460    27.4260   -24.4120 C.2          1 NAP1001   0.0000
    40 O7N         14.5050    27.0540   -23.6920 O.2          1 NAP1001   0.0000
    41 N7N         13.5130    28.7040   -24.6240 N.am         1 NAP1001   0.0000
    42 C4N         12.7010    25.1090   -24.7430 C.ar         1 NAP1001   0.0000
    43 C5N         11.8250    24.2570   -25.3710 C.ar         1 NAP1001   0.0000
    44 C6N         10.9840    24.7370   -26.3490 C.ar         1 NAP1001   0.0000
    45 P2B         -2.7150    24.7690   -30.9640 P.3          1 NAP1001   0.0000
    46 O1X         -3.1870    24.2470   -29.7180 O.co2        1 NAP1001   0.0000
    47 O2X         -3.1950    26.0520   -31.3640 O.co2        1 NAP1001  -1.0000
    48 O3X         -2.9160    23.7650   -31.9590 O.co2        1 NAP1001  -1.0000
    49 H5B1         3.9086    23.6773   -31.3511 H            1 NAP1001   0.0000
    50 H5B2         3.7181    24.5814   -30.0047 H            1 NAP1001   0.0000
    51 H4B          1.9863    25.0943   -31.4211 H            1 NAP1001   0.0000
    52 H3B          1.2216    23.5859   -29.1458 H            1 NAP1001   0.0000
    53 H5           0.6398    26.1711   -30.0453 H            1 NAP1001   0.0000
    54 H2B         -0.8421    23.1588   -29.8937 H            1 NAP1001   0.0000
    55 H1B         -0.3870    23.3127   -32.5259 H            1 NAP1001   0.0000
    56 H8A          0.9129    21.2305   -29.7182 H            1 NAP1001   0.0000
    57 H6A1        -1.5759    16.3727   -32.4700 H            1 NAP1001   0.0000
    58 H6A2        -0.7012    16.9522   -31.0919 H            1 NAP1001   0.0000
    59 H2A         -2.2716    19.9912   -34.9921 H            1 NAP1001   0.0000
    60 H5D1         6.4868    25.3992   -27.6999 H            1 NAP1001   0.0000
    61 H5D2         6.4421    25.0347   -29.2911 H            1 NAP1001   0.0000
    62 H4D          7.8793    26.8117   -29.1401 H            1 NAP1001   0.0000
    63 H3D          9.3029    24.3529   -29.4314 H            1 NAP1001   0.0000
    64 H16          8.4647    24.9640   -31.3133 H            1 NAP1001   0.0000
    65 H2D         11.2759    25.3164   -29.0119 H            1 NAP1001   0.0000
    66 H18         11.7548    27.4688   -29.6176 H            1 NAP1001   0.0000
    67 H1D         10.2785    27.5467   -27.7411 H            1 NAP1001   0.0000
    68 H2N         11.8397    27.7837   -26.3564 H            1 NAP1001   0.0000
    69 H7N1        14.1285    29.3520   -24.1754 H            1 NAP1001   0.0000
    70 H7N2        12.7953    29.0374   -25.2354 H            1 NAP1001   0.0000
    71 H4N         13.3229    24.7646   -24.0397 H            1 NAP1001   0.0000
    72 H5N         11.7985    23.2899   -25.1179 H            1 NAP1001   0.0000
    73 H6N         10.3463    24.1175   -26.8068 H            1 NAP1001   0.0000
@<TRIPOS>BOND
     1    1    2      ar
     2    1    3      ar
     3    1    4       1
     4    1   23       1
     5    4    5       1
     6    5    6       1
     7    6    7       1
     8    6    8       1
     9    7   12       1
    10    8    9       1
    11    8   10       1
    12   10   11       1
    13   10   12       1
    14   11   45       1
    15   12   13       1
    16   13   14       1
    17   13   22       1
    18   14   15       2
    19   15   16       1
    20   16   17      ar
    21   16   22      ar
    22   17   18       1
    23   17   19      ar
    24   19   20      ar
    25   20   21      ar
    26   21   22      ar
    27   23   24       1
    28   24   25      ar
    29   24   26      ar
    30   24   27       1
    31   27   28       1
    32   28   29       1
    33   29   30       1
    34   29   31       1
    35   30   35       1
    36   31   32       1
    37   31   33       1
    38   33   34       1
    39   33   35       1
    40   35   36       1
    41   36   37      ar
    42   36   44      ar
    43   37   38      ar
    44   38   39       1
    45   38   42      ar
    46   39   40       2
    47   39   41      am
    48   42   43      ar
    49   43   44      ar
    50   45   46      ar
    51   45   47      ar
    52   45   48      ar
    53   43   72       1
    54    5   49       1
    55    5   50       1
    56    6   51       1
    57    8   52       1
    58    9   53       1
    59   10   54       1
    60   12   55       1
    61   14   56       1
    62   18   57       1
    63   18   58       1
    64   20   59       1
    65   44   73       1
    66   28   60       1
    67   28   61       1
    68   29   62       1
    69   31   63       1
    70   32   64       1
    71   33   65       1
    72   34   66       1
    73   35   67       1
    74   37   68       1
    75   41   69       1
    76   41   70       1
    77   42   71       1
@<TRIPOS>SUBSTRUCTURE
     1 NAP1001     1 GROUP             4 B     NAP     0 **** NAP B1001
