@<TRIPOS>MOLECULE
2e7f_C2F_1_ligand
   56    58     1     0     0
SMALL
NO_CHARGES


@<TRIPOS>ATOM
     1 N1          -9.2390    76.0830   120.9340 N.2          1 C2F3000   0.0000
     2 C2          -8.5490    77.1760   120.4910 C.2          1 C2F3000   0.0000
     3 NA2         -8.1260    78.0900   121.4060 N.pl3        1 C2F3000   0.0000
     4 N3          -8.2750    77.3670   119.1570 N.pl3        1 C2F3000   0.0000
     5 C4          -8.6680    76.4920   118.1870 C.2          1 C2F3000   0.0000
     6 O4          -8.3990    76.7000   116.9870 O.2          1 C2F3000   0.0000
     7 C4A         -9.4300    75.2700   118.5890 C.2          1 C2F3000   0.0000
     8 N5          -9.8870    74.2820   117.6300 N.pl3        1 C2F3000   0.0000
     9 C6         -10.0830    72.9240   118.2550 C.3          1 C2F3000   0.0000
    10 C7         -10.8610    72.9860   119.6220 C.3          1 C2F3000   0.0000
    11 N8         -10.3720    74.0370   120.5250 N.pl3        1 C2F3000   0.0000
    12 C8A         -9.6920    75.1260   120.0740 C.2          1 C2F3000   0.0000
    13 C9          -8.6910    72.2590   118.4560 C.3          1 C2F3000   0.0000
    14 N10         -8.7580    70.8160   118.6180 N.pl3        1 C2F3000   0.0000
    15 C11        -11.1390    74.7520   116.9870 C.3          1 C2F3000   0.0000
    16 C12         -9.3850    68.0290   115.5380 C.ar         1 C2F3000   0.0000
    17 C13         -9.4980    67.6520   116.9090 C.ar         1 C2F3000   0.0000
    18 C14         -9.2840    68.6030   117.9280 C.ar         1 C2F3000   0.0000
    19 C15         -8.9540    69.9380   117.5900 C.ar         1 C2F3000   0.0000
    20 C16         -8.8410    70.3160   116.2020 C.ar         1 C2F3000   0.0000
    21 C17         -9.0560    69.3670   115.1870 C.ar         1 C2F3000   0.0000
    22 C           -9.6120    67.0040   114.4710 C.2          1 C2F3000   0.0000
    23 O           -8.8880    67.0040   113.4870 O.2          1 C2F3000   0.0000
    24 N          -10.6150    66.1270   114.6670 N.am         1 C2F3000   0.0000
    25 CA         -11.0620    65.0270   113.8090 C.3          1 C2F3000   0.0000
    26 CB         -12.3250    64.4300   114.4480 C.3          1 C2F3000   0.0000
    27 CG         -12.1610    62.9080   114.5010 C.3          1 C2F3000   0.0000
    28 CD         -13.4590    62.1950   114.8830 C.2          1 C2F3000   0.0000
    29 OE1        -14.4520    62.9510   115.0830 O.co2        1 C2F3000   0.0000
    30 OE2        -13.5290    60.9460   115.0040 O.co2        1 C2F3000  -1.0000
    31 CT         -11.4000    65.5520   112.4310 C.2          1 C2F3000   0.0000
    32 O1         -12.0430    66.6180   112.3250 O.co2        1 C2F3000   0.0000
    33 O2         -11.0190    64.9100   111.4380 O.co2        1 C2F3000  -1.0000
    34 HA21        -7.6190    78.8986   121.1075 H            1 C2F3000   0.0000
    35 HA22        -8.3221    77.9531   122.3770 H            1 C2F3000   0.0000
    36 H3         -10.6106    72.3601   117.6197 H            1 C2F3000   0.0000
    37 H4         -10.7648    72.1032   120.0817 H            1 C2F3000   0.0000
    38 H5         -11.8271    73.1580   119.4293 H            1 C2F3000   0.0000
    39 H6         -10.5451    73.9488   121.5060 H            1 C2F3000   0.0000
    40 H7          -8.2679    72.6503   119.2732 H            1 C2F3000   0.0000
    41 H8          -8.1244    72.4623   117.6575 H            1 C2F3000   0.0000
    42 H9          -8.6541    70.4426   119.5398 H            1 C2F3000   0.0000
    43 H10        -11.4514    74.0690   116.3267 H            1 C2F3000   0.0000
    44 H11        -11.8421    74.8866   117.6852 H            1 C2F3000   0.0000
    45 H12        -10.9673    75.6171   116.5157 H            1 C2F3000   0.0000
    46 H13         -9.7300    66.7092   117.1486 H            1 C2F3000   0.0000
    47 H14         -9.3652    68.3350   118.8880 H            1 C2F3000   0.0000
    48 H15         -8.6085    71.2582   115.9606 H            1 C2F3000   0.0000
    49 H16         -8.9781    69.6311   114.2256 H            1 C2F3000   0.0000
    50 H17        -11.1268    66.2430   115.5182 H            1 C2F3000   0.0000
    51 HA         -10.3478    64.3300   113.7449 H            1 C2F3000   0.0000
    52 HB1        -13.1262    64.6652   113.8978 H            1 C2F3000   0.0000
    53 HB2        -12.4388    64.7906   115.3737 H            1 C2F3000   0.0000
    54 HG1        -11.4601    62.6839   115.1782 H            1 C2F3000   0.0000
    55 HG2        -11.8700    62.5848   113.6005 H            1 C2F3000   0.0000
    56 H23         -7.7651    78.1834   118.8860 H            1 C2F3000   0.0000
@<TRIPOS>BOND
     1    1    2       2
     2    1   12       1
     3    2    3       1
     4    2    4       1
     5    4    5       1
     6    5    6       2
     7    5    7       1
     8    7    8       1
     9    7   12       2
    10    8    9       1
    11    8   15       1
    12    9   10       1
    13    9   13       1
    14   10   11       1
    15   11   12       1
    16   13   14       1
    17   14   19       1
    18   16   17      ar
    19   16   21      ar
    20   16   22       1
    21   17   18      ar
    22   18   19      ar
    23   19   20      ar
    24   20   21      ar
    25   22   23       2
    26   22   24      am
    27   24   25       1
    28   25   26       1
    29   25   31       1
    30   26   27       1
    31   27   28       1
    32   28   29      ar
    33   28   30      ar
    34   31   32      ar
    35   31   33      ar
    36    4   56       1
    37    3   34       1
    38    3   35       1
    39    9   36       1
    40   10   37       1
    41   10   38       1
    42   11   39       1
    43   13   40       1
    44   13   41       1
    45   14   42       1
    46   15   43       1
    47   15   44       1
    48   15   45       1
    49   17   46       1
    50   18   47       1
    51   20   48       1
    52   21   49       1
    53   24   50       1
    54   25   51       1
    55   26   52       1
    56   26   53       1
    57   27   54       1
    58   27   55       1
@<TRIPOS>SUBSTRUCTURE
     1 C2F3000     1 GROUP             4 A     C2F     0 **** C2F A3000
