@<TRIPOS>MOLECULE
4wbb_ADP_1_ligand
   39    41     1     0     0
SMALL
NO_CHARGES


@<TRIPOS>ATOM
     1 PB          30.2000    32.2180    -8.3470 P.3          1 ADP502   0.0000
     2 O1B         30.9750    32.0110    -9.6260 O.co2        1 ADP502   0.0000
     3 O2B         30.6400    31.3370    -7.2020 O.co2        1 ADP502  -1.0000
     4 O3B         29.9890    33.6660    -7.9740 O.co2        1 ADP502  -1.0000
     5 PA          27.6460    31.4290    -7.5290 P.3          1 ADP502   0.0000
     6 O1A         27.1740    29.9980    -7.6300 O.co2        1 ADP502   0.0000
     7 O2A         28.2270    31.9400    -6.2320 O.co2        1 ADP502  -1.0000
     8 O3A         28.7210    31.6880    -8.6990 O.3          1 ADP502   0.0000
     9 O5'         26.4280    32.3930    -7.9500 O.3          1 ADP502   0.0000
    10 C5'         26.6630    33.5490    -8.7510 C.3          1 ADP502   0.0000
    11 C4'         25.6650    34.6380    -8.3770 C.3          1 ADP502   0.0000
    12 O4'         24.4410    34.4360    -9.0890 O.3          1 ADP502   0.0000
    13 C3'         25.3480    34.6080    -6.8900 C.3          1 ADP502   0.0000
    14 O3'         25.7060    35.8560    -6.2880 O.3          1 ADP502   0.0000
    15 C2'         23.8530    34.3870    -6.7780 C.3          1 ADP502   0.0000
    16 O2'         23.2430    35.4910    -6.1040 O.3          1 ADP502   0.0000
    17 C1'         23.3290    34.2920    -8.2020 C.3          1 ADP502   0.0000
    18 N9          22.6890    32.9690    -8.4120 N.pl3        1 ADP502   0.0000
    19 C8          23.3340    31.8080    -8.6290 C.2          1 ADP502   0.0000
    20 N7          22.4590    30.7810    -8.7820 N.2          1 ADP502   0.0000
    21 C5          21.2180    31.2880    -8.6620 C.ar         1 ADP502   0.0000
    22 C6          19.8360    30.7540    -8.7170 C.ar         1 ADP502   0.0000
    23 N6          19.6020    29.4380    -8.9370 N.pl3        1 ADP502   0.0000
    24 N1          18.8180    31.6250    -8.5400 N.ar         1 ADP502   0.0000
    25 C2          19.0370    32.9350    -8.3210 C.ar         1 ADP502   0.0000
    26 N3          20.2630    33.4870    -8.2590 N.ar         1 ADP502   0.0000
    27 C4          21.3750    32.7300    -8.4180 C.ar         1 ADP502   0.0000
    28 H5'1        26.5529    33.3134    -9.7166 H            1 ADP502   0.0000
    29 H5'2        27.5930    33.8807    -8.5928 H            1 ADP502   0.0000
    30 H4'         26.0443    35.5316    -8.6170 H            1 ADP502   0.0000
    31 H3'         25.8409    33.8586    -6.4479 H            1 ADP502   0.0000
    32 H5          25.6129    36.5896    -6.9611 H            1 ADP502   0.0000
    33 H2'         23.6666    33.5371    -6.2851 H            1 ADP502   0.0000
    34 H7          23.9442    36.1605    -5.8588 H            1 ADP502   0.0000
    35 H1'         22.6649    35.0208    -8.3688 H            1 ADP502   0.0000
    36 H9          24.3286    31.7138    -8.6720 H            1 ADP502   0.0000
    37 H10         18.6629    29.0960    -8.9708 H            1 ADP502   0.0000
    38 H11         20.3683    28.8086    -9.0656 H            1 ADP502   0.0000
    39 H12         18.2441    33.5317    -8.1974 H            1 ADP502   0.0000
@<TRIPOS>BOND
     1    1    2      ar
     2    1    3      ar
     3    1    4      ar
     4    1    8       1
     5    5    6      ar
     6    5    7      ar
     7    5    8       1
     8    5    9       1
     9    9   10       1
    10   10   11       1
    11   11   12       1
    12   11   13       1
    13   12   17       1
    14   13   14       1
    15   13   15       1
    16   15   16       1
    17   15   17       1
    18   17   18       1
    19   18   19       1
    20   18   27       1
    21   19   20       2
    22   20   21       1
    23   21   22      ar
    24   21   27      ar
    25   22   23       1
    26   22   24      ar
    27   24   25      ar
    28   25   26      ar
    29   26   27      ar
    30   25   39       1
    31   23   38       1
    32   23   37       1
    33   10   28       1
    34   10   29       1
    35   11   30       1
    36   13   31       1
    37   14   32       1
    38   15   33       1
    39   16   34       1
    40   17   35       1
    41   19   36       1
@<TRIPOS>SUBSTRUCTURE
     1 ADP502      1 GROUP             4 A     ADP     0 **** ADP A 502
