@<TRIPOS>MOLECULE
3lpf_Z77_1_ligand
   54    56     1     0     0
SMALL
NO_CHARGES


@<TRIPOS>ATOM
     1 N1         -24.3860     4.2490    -4.1660 N.pl3        1 Z77604   0.0000
     2 N2         -24.4770     6.6260    -4.1080 N.pl3        1 Z77604   0.0000
     3 N3         -27.0610     6.4190    -7.9640 N.pl3        1 Z77604   0.0000
     4 CAA        -23.1520     0.3580    -0.2350 C.3          1 Z77604   0.0000
     5 CAB        -27.2850    11.6030   -10.3560 C.3          1 Z77604   0.0000
     6 CAC        -29.2220     9.5050   -11.1710 C.3          1 Z77604   0.0000
     7 OAD        -26.0620     4.9640    -6.4790 O.2          1 Z77604   0.0000
     8 OAE        -25.6080     9.9230    -2.7320 O.3          1 Z77604   0.0000
     9 SAF        -24.9050     5.4350    -1.8140 S.2          1 Z77604   0.0000
    10 CAG        -24.9480     0.6390    -4.0340 C.ar         1 Z77604   0.0000
    11 CAH        -24.8060     1.9430    -4.5130 C.ar         1 Z77604   0.0000
    12 CAI        -24.7960     0.3780    -2.6750 C.ar         1 Z77604   0.0000
    13 CAJ        -24.3570     2.7270    -2.2810 C.ar         1 Z77604   0.0000
    14 CAK        -26.2530     9.9310    -8.7460 C.ar         1 Z77604   0.0000
    15 CAL        -28.0710     7.9700    -9.5160 C.ar         1 Z77604   0.0000
    16 CAM        -25.2310     8.3500    -7.1700 C.2          1 Z77604   0.0000
    17 CAN        -25.6460     8.8360    -3.6600 C.3          1 Z77604   0.0000
    18 CAO        -24.5720     7.8300    -3.2410 C.3          1 Z77604   0.0000
    19 CAP        -24.0810     6.7760    -5.5310 C.3          1 Z77604   0.0000
    20 OAS        -24.3520     1.1580    -0.4650 O.3          1 Z77604   0.0000
    21 CAT        -24.5550     5.4190    -3.5030 C.2          1 Z77604   0.0000
    22 CAU        -27.2160    10.2140    -9.7180 C.ar         1 Z77604   0.0000
    23 CAV        -28.1370     9.2310   -10.1010 C.ar         1 Z77604   0.0000
    24 CAW        -24.5100     3.0040    -3.6480 C.ar         1 Z77604   0.0000
    25 CAX        -24.5010     1.4230    -1.7950 C.ar         1 Z77604   0.0000
    26 CAY        -25.1820     7.0700    -6.5800 C.2          1 Z77604   0.0000
    27 CAZ        -26.0990     6.1010    -6.9840 C.2          1 Z77604   0.0000
    28 CBA        -26.1940     8.6700    -8.1480 C.ar         1 Z77604   0.0000
    29 CBB        -27.1050     7.6910    -8.5510 C.ar         1 Z77604   0.0000
    30 H1         -24.1457     4.3114    -5.1347 H            1 Z77604   0.0000
    31 H2         -27.7237     5.7249    -8.2453 H            1 Z77604   0.0000
    32 HAA1       -23.0573     0.1727     0.7431 H            1 Z77604   0.0000
    33 HAA2       -23.2272    -0.5063    -0.7323 H            1 Z77604   0.0000
    34 HAA3       -22.3498     0.8599    -0.5584 H            1 Z77604   0.0000
    35 HAB1       -28.0280    11.6261   -11.0249 H            1 Z77604   0.0000
    36 HAB2       -27.4536    12.2876    -9.6468 H            1 Z77604   0.0000
    37 HAB3       -26.4185    11.8032   -10.8133 H            1 Z77604   0.0000
    38 HAC1       -29.1412    10.4480   -11.4938 H            1 Z77604   0.0000
    39 HAC2       -29.0979     8.8777   -11.9398 H            1 Z77604   0.0000
    40 HAC3       -30.1277     9.3663   -10.7704 H            1 Z77604   0.0000
    41 HAE        -26.4945    10.0034    -2.2763 H            1 Z77604   0.0000
    42 HAG        -25.1586    -0.1064    -4.6664 H            1 Z77604   0.0000
    43 HAH        -24.9176     2.1223    -5.4904 H            1 Z77604   0.0000
    44 HAI        -24.8976    -0.5548    -2.3293 H            1 Z77604   0.0000
    45 HAJ        -24.1426     3.4700    -1.6470 H            1 Z77604   0.0000
    46 HAK        -25.5996    10.6381    -8.4758 H            1 Z77604   0.0000
    47 HAL        -28.7202     7.2603    -9.7895 H            1 Z77604   0.0000
    48 HAM        -24.5690     9.0447    -6.8887 H            1 Z77604   0.0000
    49 HAN1       -25.4583     9.1699    -4.5837 H            1 Z77604   0.0000
    50 HAN2       -26.5465     8.4016    -3.6392 H            1 Z77604   0.0000
    51 HAO1       -23.6868     8.2951    -3.2556 H            1 Z77604   0.0000
    52 HAO2       -24.7745     7.5279    -2.3095 H            1 Z77604   0.0000
    53 HAP1       -23.6338     5.9242    -5.8039 H            1 Z77604   0.0000
    54 HAP2       -23.4227     7.5274    -5.5761 H            1 Z77604   0.0000
@<TRIPOS>BOND
     1    1   21       1
     2    1   24       1
     3    2   18       1
     4    2   19       1
     5    2   21       1
     6    3   27       1
     7    3   29       1
     8    4   20       1
     9    5   22       1
    10    6   23       1
    11    7   27       2
    12    8   17       1
    13    9   21       2
    14   10   11      ar
    15   10   12      ar
    16   11   24      ar
    17   12   25      ar
    18   13   24      ar
    19   13   25      ar
    20   14   22      ar
    21   14   28      ar
    22   15   23      ar
    23   15   29      ar
    24   16   26       2
    25   16   28       1
    26   17   18       1
    27   19   26       1
    28   20   25       1
    29   22   23      ar
    30   26   27       1
    31   28   29      ar
    32    1   30       1
    33    3   31       1
    34    4   32       1
    35    4   33       1
    36    4   34       1
    37    5   35       1
    38    5   36       1
    39    5   37       1
    40    6   38       1
    41    6   39       1
    42    6   40       1
    43    8   41       1
    44   10   42       1
    45   11   43       1
    46   12   44       1
    47   13   45       1
    48   14   46       1
    49   15   47       1
    50   16   48       1
    51   17   49       1
    52   17   50       1
    53   18   51       1
    54   18   52       1
    55   19   53       1
    56   19   54       1
@<TRIPOS>SUBSTRUCTURE
     1 Z77604      1 GROUP             4 A     Z77     0 **** Z77 A 604
