@<TRIPOS>MOLECULE
4hur_ACO_3_ligand
   85    87     1     0     0
SMALL
NO_CHARGES


@<TRIPOS>ATOM
     1 N1A        -30.3690   -12.3930   -22.1810 N.ar         1 ACO301   0.0000
     2 C2A        -31.7290   -12.3450   -22.2400 C.ar         1 ACO301   0.0000
     3 N3A        -32.4130   -11.9760   -21.1300 N.ar         1 ACO301   0.0000
     4 C4A        -31.7420   -11.6540   -20.0410 C.ar         1 ACO301   0.0000
     5 C5A        -30.4270   -11.6980   -20.0010 C.ar         1 ACO301   0.0000
     6 C6A        -29.7390   -12.0790   -21.0730 C.ar         1 ACO301   0.0000
     7 N6A        -28.4250   -12.1120   -21.0240 N.pl3        1 ACO301   0.0000
     8 N7A        -30.0660   -11.3170   -18.7900 N.2          1 ACO301   0.0000
     9 C8A        -31.1600   -11.0610   -18.1300 C.2          1 ACO301   0.0000
    10 N9A        -32.1840   -11.2800   -18.8830 N.pl3        1 ACO301   0.0000
    11 C1B        -33.6020   -11.1470   -18.6070 C.3          1 ACO301   0.0000
    12 C2B        -33.9320   -11.3360   -17.1430 C.3          1 ACO301   0.0000
    13 O2B        -34.3090   -12.6200   -16.8920 O.3          1 ACO301   0.0000
    14 C3B        -35.1320   -10.4730   -16.9660 C.3          1 ACO301   0.0000
    15 O3B        -36.2880   -11.0040   -17.5800 O.3          1 ACO301   0.0000
    16 P3B        -37.4620   -11.5240   -16.7210 P.3          1 ACO301   0.0000
    17 O7A        -36.7420   -12.6360   -16.1120 O.co2        1 ACO301   0.0000
    18 O8A        -38.4980   -11.8540   -17.6440 O.co2        1 ACO301  -1.0000
    19 O9A        -37.8410   -10.4780   -15.7900 O.co2        1 ACO301  -1.0000
    20 C4B        -34.7350    -9.3270   -17.7620 C.3          1 ACO301   0.0000
    21 O4B        -33.9220    -9.8270   -18.8460 O.3          1 ACO301   0.0000
    22 C5B        -34.0220    -8.2810   -16.9060 C.3          1 ACO301   0.0000
    23 O5B        -33.0860    -8.8120   -16.0360 O.3          1 ACO301   0.0000
    24 P1A        -32.4530    -7.9080   -15.0090 P.3          1 ACO301   0.0000
    25 O1A        -33.4970    -7.0110   -14.5810 O.co2        1 ACO301   0.0000
    26 O2A        -31.6810    -8.6000   -14.0490 O.co2        1 ACO301  -1.0000
    27 O3A        -31.3620    -7.1760   -15.7650 O.3          1 ACO301   0.0000
    28 P2A        -31.0270    -5.6330   -15.8260 P.3          1 ACO301   0.0000
    29 O4A        -32.1250    -4.9520   -16.4020 O.co2        1 ACO301   0.0000
    30 O5A        -30.4320    -5.1590   -14.6410 O.co2        1 ACO301  -1.0000
    31 O6A        -29.9160    -5.7320   -16.9070 O.3          1 ACO301   0.0000
    32 CBP        -27.7340    -6.3980   -17.7900 C.3          1 ACO301   0.0000
    33 CCP        -28.5960    -6.0900   -16.5680 C.3          1 ACO301   0.0000
    34 CDP        -27.3060    -5.1510   -18.5180 C.3          1 ACO301   0.0000
    35 CEP        -28.5110    -7.2610   -18.7340 C.3          1 ACO301   0.0000
    36 CAP        -26.5150    -7.1370   -17.2680 C.3          1 ACO301   0.0000
    37 OAP        -26.9960    -8.3470   -16.7740 O.3          1 ACO301   0.0000
    38 C9P        -25.3470    -7.3190   -18.2480 C.2          1 ACO301   0.0000
    39 O9P        -25.3130    -8.2190   -19.0710 O.2          1 ACO301   0.0000
    40 N8P        -24.3600    -6.4750   -17.9870 N.am         1 ACO301   0.0000
    41 C7P        -23.0960    -6.4080   -18.6770 C.3          1 ACO301   0.0000
    42 C6P        -21.9530    -6.6730   -17.7210 C.3          1 ACO301   0.0000
    43 C5P        -20.6100    -6.7230   -18.4290 C.2          1 ACO301   0.0000
    44 O5P        -20.4390    -7.4660   -19.3700 O.2          1 ACO301   0.0000
    45 N4P        -19.6620    -5.9760   -17.8950 N.am         1 ACO301   0.0000
    46 C3P        -18.3190    -5.8940   -18.4220 C.3          1 ACO301   0.0000
    47 C2P        -17.9170    -4.4570   -18.7340 C.3          1 ACO301   0.0000
    48 S1P        -18.4020    -3.8100   -20.3570 S.3          1 ACO301   0.0000
    49 C          -17.3550    -2.6390   -20.5310 C.2          1 ACO301   0.0000
    50 O          -16.5800    -2.2380   -19.6860 O.2          1 ACO301   0.0000
    51 CH3        -17.3810    -2.0040   -21.9010 C.3          1 ACO301   0.0000
    52 H2A        -32.2122   -12.5771   -23.0842 H            1 ACO301   0.0000
    53 H6A1       -27.9500   -11.8718   -20.1774 H            1 ACO301   0.0000
    54 H6A2       -27.9010   -12.3772   -21.8333 H            1 ACO301   0.0000
    55 H8A        -31.1996   -10.7428   -17.1828 H            1 ACO301   0.0000
    56 H1B        -34.1424   -11.7608   -19.1825 H            1 ACO301   0.0000
    57 H2B        -33.1779   -11.0485   -16.5525 H            1 ACO301   0.0000
    58 H7         -35.2392   -12.6286   -16.5249 H            1 ACO301   0.0000
    59 H3B        -35.2881   -10.2330   -16.0079 H            1 ACO301   0.0000
    60 H4B        -35.5576    -8.9110   -18.1496 H            1 ACO301   0.0000
    61 H5B1       -34.7093    -7.7920   -16.3689 H            1 ACO301   0.0000
    62 H5B2       -33.5568    -7.6392   -17.5156 H            1 ACO301   0.0000
    63 HCP1       -28.6249    -6.9017   -15.9846 H            1 ACO301   0.0000
    64 HCP2       -28.1787    -5.3329   -16.0653 H            1 ACO301   0.0000
    65 HDP1       -26.7459    -5.4016   -19.3076 H            1 ACO301   0.0000
    66 HDP2       -28.1151    -4.6518   -18.8282 H            1 ACO301   0.0000
    67 HDP3       -26.7728    -4.5716   -17.9016 H            1 ACO301   0.0000
    68 HEP1       -27.9506    -7.4657   -19.5365 H            1 ACO301   0.0000
    69 HEP2       -28.7619    -8.1139   -18.2762 H            1 ACO301   0.0000
    70 HEP3       -29.3397    -6.7800   -19.0201 H            1 ACO301   0.0000
    71 HAP        -26.1670    -6.6174   -16.4877 H            1 ACO301   0.0000
    72 H21        -26.7799    -8.4190   -15.8003 H            1 ACO301   0.0000
    73 H8P        -24.5052    -5.8238   -17.2421 H            1 ACO301   0.0000
    74 H7P1       -22.9869    -5.4973   -19.0754 H            1 ACO301   0.0000
    75 H7P2       -23.0818    -7.0940   -19.4045 H            1 ACO301   0.0000
    76 H6P1       -22.1101    -7.5500   -17.2669 H            1 ACO301   0.0000
    77 H6P2       -21.9294    -5.9433   -17.0376 H            1 ACO301   0.0000
    78 H4P        -19.8851    -5.4379   -17.0822 H            1 ACO301   0.0000
    79 H3P1       -18.2681    -6.4336   -19.2624 H            1 ACO301   0.0000
    80 H3P2       -17.6834    -6.2681   -17.7467 H            1 ACO301   0.0000
    81 H2P1       -16.9206    -4.4005   -18.6707 H            1 ACO301   0.0000
    82 H2P2       -18.3291    -3.8691   -18.0379 H            1 ACO301   0.0000
    83 HH31       -16.6982    -1.2747   -21.9434 H            1 ACO301   0.0000
    84 HH32       -17.1735    -2.6955   -22.5929 H            1 ACO301   0.0000
    85 HH33       -18.2886    -1.6214   -22.0739 H            1 ACO301   0.0000
@<TRIPOS>BOND
     1    1    2      ar
     2    1    6      ar
     3    2    3      ar
     4    3    4      ar
     5    4    5      ar
     6    4   10       1
     7    5    6      ar
     8    5    8       1
     9    6    7       1
    10    8    9       2
    11    9   10       1
    12   10   11       1
    13   11   12       1
    14   11   21       1
    15   12   13       1
    16   12   14       1
    17   14   15       1
    18   14   20       1
    19   15   16       1
    20   16   17      ar
    21   16   18      ar
    22   16   19      ar
    23   20   21       1
    24   20   22       1
    25   22   23       1
    26   23   24       1
    27   24   25      ar
    28   24   26      ar
    29   24   27       1
    30   27   28       1
    31   28   29      ar
    32   28   30      ar
    33   28   31       1
    34   31   33       1
    35   32   33       1
    36   32   34       1
    37   32   35       1
    38   32   36       1
    39   36   37       1
    40   36   38       1
    41   38   39       2
    42   38   40      am
    43   40   41       1
    44   41   42       1
    45   42   43       1
    46   43   44       2
    47   43   45      am
    48   45   46       1
    49   46   47       1
    50   47   48       1
    51   48   49       1
    52   49   50       2
    53   49   51       1
    54    2   52       1
    55    7   53       1
    56    7   54       1
    57    9   55       1
    58   11   56       1
    59   12   57       1
    60   13   58       1
    61   14   59       1
    62   51   85       1
    63   51   84       1
    64   20   60       1
    65   22   61       1
    66   22   62       1
    67   51   83       1
    68   47   82       1
    69   33   63       1
    70   33   64       1
    71   34   65       1
    72   34   66       1
    73   34   67       1
    74   35   68       1
    75   35   69       1
    76   35   70       1
    77   36   71       1
    78   37   72       1
    79   40   73       1
    80   41   74       1
    81   41   75       1
    82   42   76       1
    83   42   77       1
    84   45   78       1
    85   46   79       1
    86   46   80       1
    87   47   81       1
@<TRIPOS>SUBSTRUCTURE
     1 ACO301      1 GROUP             4 C     ACO     0 **** ACO C 301
