@<TRIPOS>MOLECULE
1z4r_ACO_1_ligand
   85    87     1     0     0
SMALL
NO_CHARGES


@<TRIPOS>ATOM
     1 N1A          0.4830     5.2570    -9.7090 N.ar         1 ACO401   0.0000
     2 C2A         -0.4770     4.6030    -9.0490 C.ar         1 ACO401   0.0000
     3 N3A         -1.8070     4.5880    -9.3740 N.ar         1 ACO401   0.0000
     4 C4A         -2.1030     5.3360   -10.5190 C.ar         1 ACO401   0.0000
     5 C5A         -1.1630     6.0250   -11.2580 C.ar         1 ACO401   0.0000
     6 C6A          0.2230     5.9850   -10.8010 C.ar         1 ACO401   0.0000
     7 N6A          1.1980     6.6390   -11.4350 N.pl3        1 ACO401   0.0000
     8 N7A         -1.7820     6.6470   -12.3440 N.2          1 ACO401   0.0000
     9 C8A         -3.0420     6.3330   -12.2240 C.2          1 ACO401   0.0000
    10 N9A         -3.3210     5.5410   -11.1370 N.pl3        1 ACO401   0.0000
    11 C1B         -4.5890     5.0260   -10.7410 C.3          1 ACO401   0.0000
    12 C2B         -4.7050     3.4970   -10.7310 C.3          1 ACO401   0.0000
    13 O2B         -4.8230     3.0090   -12.0840 O.3          1 ACO401   0.0000
    14 C3B         -5.9270     3.2760    -9.8110 C.3          1 ACO401   0.0000
    15 O3B         -7.1040     3.4180   -10.5900 O.3          1 ACO401   0.0000
    16 P3B         -8.0180     2.2100   -11.0700 P.3          1 ACO401   0.0000
    17 O7A         -7.1520     1.5170   -12.0790 O.co2        1 ACO401   0.0000
    18 O8A         -9.1770     2.8290   -11.6840 O.co2        1 ACO401  -1.0000
    19 O9A         -8.3030     1.3890    -9.8640 O.co2        1 ACO401  -1.0000
    20 C4B         -5.8690     4.4330    -8.8450 C.3          1 ACO401   0.0000
    21 O4B         -4.9180     5.3620    -9.4190 O.3          1 ACO401   0.0000
    22 C5B         -5.5660     4.1250    -7.4060 C.3          1 ACO401   0.0000
    23 O5B         -5.3180     2.7220    -7.2040 O.3          1 ACO401   0.0000
    24 P1A         -5.4290     2.0940    -5.7530 P.3          1 ACO401   0.0000
    25 O1A         -5.6300     0.6450    -5.8720 O.co2        1 ACO401   0.0000
    26 O2A         -6.4030     2.9390    -4.9600 O.co2        1 ACO401  -1.0000
    27 O3A         -3.8590     2.3380    -5.4060 O.3          1 ACO401   0.0000
    28 P2A         -2.8880     1.6550    -4.4030 P.3          1 ACO401   0.0000
    29 O4A         -2.0660     0.8360    -5.3030 O.co2        1 ACO401   0.0000
    30 O5A         -3.6300     0.9920    -3.2920 O.co2        1 ACO401  -1.0000
    31 O6A         -2.0400     2.8300    -3.8410 O.3          1 ACO401   0.0000
    32 CBP         -0.1600     4.3950    -4.1770 C.3          1 ACO401   0.0000
    33 CCP         -1.4660     3.8880    -4.7300 C.3          1 ACO401   0.0000
    34 CDP          0.2540     5.6460    -5.0320 C.3          1 ACO401   0.0000
    35 CEP         -0.3490     4.7950    -2.6880 C.3          1 ACO401   0.0000
    36 CAP          0.9000     3.2420    -4.3800 C.3          1 ACO401   0.0000
    37 OAP          1.1450     2.9980    -5.7670 O.3          1 ACO401   0.0000
    38 C9P          2.2490     3.4580    -3.6590 C.2          1 ACO401   0.0000
    39 O9P          2.3750     3.3090    -2.4490 O.2          1 ACO401   0.0000
    40 N8P          3.2960     3.8370    -4.4510 N.am         1 ACO401   0.0000
    41 C7P          4.6680     4.0810    -3.9520 C.3          1 ACO401   0.0000
    42 C6P          4.8100     5.3480    -3.0900 C.3          1 ACO401   0.0000
    43 C5P          4.5150     6.6080    -3.8570 C.2          1 ACO401   0.0000
    44 O5P          4.9820     6.7930    -5.0100 O.2          1 ACO401   0.0000
    45 N4P          3.8310     7.5680    -3.2650 N.am         1 ACO401   0.0000
    46 C3P          3.5200     8.9550    -3.6310 C.3          1 ACO401   0.0000
    47 C2P          4.8770     9.6890    -3.5540 C.3          1 ACO401   0.0000
    48 S1P          4.5280    11.5280    -3.6530 S.3          1 ACO401   0.0000
    49 C            4.0570    11.8150    -2.2220 C.2          1 ACO401   0.0000
    50 O            3.8880    11.0000    -1.1990 O.2          1 ACO401   0.0000
    51 CH3          3.6320    13.2520    -1.5540 C.3          1 ACO401   0.0000
    52 H2A         -0.1992     4.0770    -8.2452 H            1 ACO401   0.0000
    53 H6A1         0.9896     7.1795   -12.2501 H            1 ACO401   0.0000
    54 H6A2         2.1371     6.5887   -11.0950 H            1 ACO401   0.0000
    55 H8A         -3.7432     6.6416   -12.8667 H            1 ACO401   0.0000
    56 H1B         -5.2901     5.3968   -11.3501 H            1 ACO401   0.0000
    57 H2B         -3.8907     3.1035   -10.3043 H            1 ACO401   0.0000
    58 H7          -5.6870     2.5161   -12.1864 H            1 ACO401   0.0000
    59 H3B         -5.8903     2.3931    -9.3428 H            1 ACO401   0.0000
    60 H4B         -6.7640     4.8786    -8.8672 H            1 ACO401   0.0000
    61 H5B1        -6.3460     4.4006    -6.8442 H            1 ACO401   0.0000
    62 H5B2        -4.7558     4.6409    -7.1276 H            1 ACO401   0.0000
    63 HCP1        -2.1123     4.6483    -4.7954 H            1 ACO401   0.0000
    64 HCP2        -1.3103     3.5036    -5.6399 H            1 ACO401   0.0000
    65 HDP1         1.1207     6.0105    -4.6915 H            1 ACO401   0.0000
    66 HDP2         0.3591     5.3757    -5.9890 H            1 ACO401   0.0000
    67 HDP3        -0.4543     6.3483    -4.9598 H            1 ACO401   0.0000
    68 HEP1         0.5180     5.1317    -2.3207 H            1 ACO401   0.0000
    69 HEP2        -1.0409     5.5139    -2.6212 H            1 ACO401   0.0000
    70 HEP3        -0.6458     3.9970    -2.1636 H            1 ACO401   0.0000
    71 HAP          0.4985     2.4071    -4.0035 H            1 ACO401   0.0000
    72 H21          0.5072     2.3041    -6.1011 H            1 ACO401   0.0000
    73 H8P          3.1246     3.9570    -5.4289 H            1 ACO401   0.0000
    74 H7P1         5.2774     4.1680    -4.7400 H            1 ACO401   0.0000
    75 H7P2         4.9458     3.2941    -3.4010 H            1 ACO401   0.0000
    76 H6P1         5.7470     5.3961    -2.7439 H            1 ACO401   0.0000
    77 H6P2         4.1735     5.2850    -2.3213 H            1 ACO401   0.0000
    78 H4P          3.4442     7.2941    -2.3844 H            1 ACO401   0.0000
    79 H3P1         2.8662     9.3524    -2.9871 H            1 ACO401   0.0000
    80 H3P2         3.1455     9.0007    -4.5571 H            1 ACO401   0.0000
    81 H2P1         5.4598     9.4104    -4.3173 H            1 ACO401   0.0000
    82 H2P2         5.3332     9.4739    -2.6905 H            1 ACO401   0.0000
    83 HH31         3.3700    13.1113    -0.5992 H            1 ACO401   0.0000
    84 HH32         4.4073    13.8821    -1.5975 H            1 ACO401   0.0000
    85 HH33         2.8596    13.6385    -2.0581 H            1 ACO401   0.0000
@<TRIPOS>BOND
     1    1    2      ar
     2    1    6      ar
     3    2    3      ar
     4    3    4      ar
     5    4    5      ar
     6    4   10       1
     7    5    6      ar
     8    5    8       1
     9    6    7       1
    10    8    9       2
    11    9   10       1
    12   10   11       1
    13   11   12       1
    14   11   21       1
    15   12   13       1
    16   12   14       1
    17   14   15       1
    18   14   20       1
    19   15   16       1
    20   16   17      ar
    21   16   18      ar
    22   16   19      ar
    23   20   21       1
    24   20   22       1
    25   22   23       1
    26   23   24       1
    27   24   25      ar
    28   24   26      ar
    29   24   27       1
    30   27   28       1
    31   28   29      ar
    32   28   30      ar
    33   28   31       1
    34   31   33       1
    35   32   33       1
    36   32   34       1
    37   32   35       1
    38   32   36       1
    39   36   37       1
    40   36   38       1
    41   38   39       2
    42   38   40      am
    43   40   41       1
    44   41   42       1
    45   42   43       1
    46   43   44       2
    47   43   45      am
    48   45   46       1
    49   46   47       1
    50   47   48       1
    51   48   49       1
    52   49   50       2
    53   49   51       1
    54    2   52       1
    55    7   53       1
    56    7   54       1
    57    9   55       1
    58   11   56       1
    59   12   57       1
    60   13   58       1
    61   14   59       1
    62   51   85       1
    63   51   84       1
    64   20   60       1
    65   22   61       1
    66   22   62       1
    67   51   83       1
    68   47   82       1
    69   33   63       1
    70   33   64       1
    71   34   65       1
    72   34   66       1
    73   34   67       1
    74   35   68       1
    75   35   69       1
    76   35   70       1
    77   36   71       1
    78   37   72       1
    79   40   73       1
    80   41   74       1
    81   41   75       1
    82   42   76       1
    83   42   77       1
    84   45   78       1
    85   46   79       1
    86   46   80       1
    87   47   81       1
@<TRIPOS>SUBSTRUCTURE
     1 ACO401      1 GROUP             4 A     ACO     0 **** ACO A 401
