@<TRIPOS>MOLECULE
3d8b_ADP_1_ligand
   39    41     1     0     0
SMALL
NO_CHARGES


@<TRIPOS>ATOM
     1 PB         -51.5050    -5.1540    13.5580 P.3          1 ADP900   0.0000
     2 O1B        -51.9390    -6.5810    13.8260 O.co2        1 ADP900   0.0000
     3 O2B        -51.7160    -4.2690    14.7210 O.co2        1 ADP900  -1.0000
     4 O3B        -51.9340    -4.5310    12.2440 O.co2        1 ADP900  -1.0000
     5 PA         -48.8190    -4.9260    12.4330 P.3          1 ADP900   0.0000
     6 O1A        -48.8610    -5.8120    11.2390 O.co2        1 ADP900   0.0000
     7 O2A        -48.9760    -3.4490    12.3700 O.co2        1 ADP900  -1.0000
     8 O3A        -49.9180    -5.4010    13.5030 O.3          1 ADP900   0.0000
     9 O5'        -47.5020    -5.3070    13.2900 O.3          1 ADP900   0.0000
    10 C5'        -46.5240    -4.3430    13.6710 C.3          1 ADP900   0.0000
    11 C4'        -45.1460    -4.9330    13.4710 C.3          1 ADP900   0.0000
    12 O4'        -45.0170    -6.0320    14.3970 O.3          1 ADP900   0.0000
    13 C3'        -44.9230    -5.5270    12.0820 C.3          1 ADP900   0.0000
    14 O3'        -44.4960    -4.5870    11.0930 O.3          1 ADP900   0.0000
    15 C2'        -43.8970    -6.5820    12.3880 C.3          1 ADP900   0.0000
    16 O2'        -42.5910    -5.9940    12.4810 O.3          1 ADP900   0.0000
    17 C1'        -44.2930    -7.0770    13.7760 C.3          1 ADP900   0.0000
    18 N9         -45.1800    -8.2370    13.6330 N.pl3        1 ADP900   0.0000
    19 C8         -46.4800    -8.2720    13.9860 C.2          1 ADP900   0.0000
    20 N7         -47.0030    -9.4780    13.7090 N.2          1 ADP900   0.0000
    21 C5         -46.0380   -10.2430    13.1930 C.ar         1 ADP900   0.0000
    22 C6         -45.9600   -11.6180    12.7220 C.ar         1 ADP900   0.0000
    23 N6         -47.0710   -12.4010    12.7620 N.pl3        1 ADP900   0.0000
    24 N1         -44.7890   -12.0580    12.2560 N.ar         1 ADP900   0.0000
    25 C2         -43.6920   -11.2650    12.2290 C.ar         1 ADP900   0.0000
    26 N3         -43.6910    -9.9880    12.6710 N.ar         1 ADP900   0.0000
    27 C4         -44.8140    -9.4340    13.1680 C.ar         1 ADP900   0.0000
    28 H5'1       -46.6487    -4.1014    14.6333 H            1 ADP900   0.0000
    29 H5'2       -46.6230    -3.5238    13.1061 H            1 ADP900   0.0000
    30 H4'        -44.4485    -4.2424    13.6624 H            1 ADP900   0.0000
    31 H3'        -45.7660    -5.9680    11.7740 H            1 ADP900   0.0000
    32 H5         -43.9660    -3.8605    11.5304 H            1 ADP900   0.0000
    33 H2'        -43.9192    -7.3212    11.7149 H            1 ADP900   0.0000
    34 H7         -42.4172    -5.7157    13.4256 H            1 ADP900   0.0000
    35 H1'        -43.4829    -7.3142    14.3122 H            1 ADP900   0.0000
    36 H9         -46.9827    -7.5104    14.3950 H            1 ADP900   0.0000
    37 H10        -47.0278   -13.3470    12.4407 H            1 ADP900   0.0000
    38 H11        -47.9312   -12.0308    13.1127 H            1 ADP900   0.0000
    39 H12        -42.8410   -11.6427    11.8642 H            1 ADP900   0.0000
@<TRIPOS>BOND
     1    1    2      ar
     2    1    3      ar
     3    1    4      ar
     4    1    8       1
     5    5    6      ar
     6    5    7      ar
     7    5    8       1
     8    5    9       1
     9    9   10       1
    10   10   11       1
    11   11   12       1
    12   11   13       1
    13   12   17       1
    14   13   14       1
    15   13   15       1
    16   15   16       1
    17   15   17       1
    18   17   18       1
    19   18   19       1
    20   18   27       1
    21   19   20       2
    22   20   21       1
    23   21   22      ar
    24   21   27      ar
    25   22   23       1
    26   22   24      ar
    27   24   25      ar
    28   25   26      ar
    29   26   27      ar
    30   25   39       1
    31   23   38       1
    32   23   37       1
    33   10   28       1
    34   10   29       1
    35   11   30       1
    36   13   31       1
    37   14   32       1
    38   15   33       1
    39   16   34       1
    40   17   35       1
    41   19   36       1
@<TRIPOS>SUBSTRUCTURE
     1 ADP900      1 GROUP             4 A     ADP     0 **** ADP A 900
