@<TRIPOS>MOLECULE
4z64_ILE_THR_GLN_TYS_TYS_1_ligand
  101   102     4     0     0
SMALL
NO_CHARGES


@<TRIPOS>ATOM
     1 N          -52.3660   -28.8810     9.4060 N.4          1 TYS28    1.0000
     2 CA         -53.7400   -28.4880     9.6740 C.3          1 TYS28    0.0000
     3 CB         -53.7570   -27.3620    10.7170 C.3          1 TYS28    0.0000
     4 CG         -53.0420   -26.1150    10.2580 C.ar         1 TYS28    0.0000
     5 CD1        -53.7270   -25.1030     9.6020 C.ar         1 TYS28    0.0000
     6 CD2        -51.6790   -25.9580    10.4570 C.ar         1 TYS28    0.0000
     7 CE1        -53.0750   -23.9660     9.1620 C.ar         1 TYS28    0.0000
     8 CE2        -51.0140   -24.8220    10.0200 C.ar         1 TYS28    0.0000
     9 CZ         -51.7170   -23.8240     9.3730 C.ar         1 TYS28    0.0000
    10 OH         -51.1110   -22.7440     8.9420 O.3          1 TYS28    0.0000
    11 S          -50.2720   -21.7560     9.9010 S.o2         1 TYS28    0.0000
    12 O1         -48.9150   -22.3320    10.0420 O.co2        1 TYS28    0.0000
    13 O2         -50.1710   -20.3160     9.3530 O.co2        1 TYS28    0.0000
    14 O3         -51.0020   -21.7030    11.2500 O.co2        1 TYS28   -1.0000
    15 C          -54.2910   -28.0250     8.3340 C.2          1 TYS28    0.0000
    16 O          -53.5310   -27.5380     7.5030 O.2          1 TYS28    0.0000
    17 H1         -52.3556   -29.6146     8.7265 H            1 TYS28    0.0000
    18 H2         -51.8567   -28.0949     9.0557 H            1 TYS28    0.0000
    19 HA         -54.2626   -29.2727    10.0074 H            1 TYS28    0.0000
    20 HB1        -53.3142   -27.6938    11.5500 H            1 TYS28    0.0000
    21 HB2        -54.7085   -27.1276    10.9160 H            1 TYS28    0.0000
    22 HD1        -54.7100   -25.1974     9.4445 H            1 TYS28    0.0000
    23 HD2        -51.1655   -26.6775    10.9245 H            1 TYS28    0.0000
    24 HE1        -53.5860   -23.2468     8.6913 H            1 TYS28    0.0000
    25 HE2        -50.0304   -24.7258    10.1725 H            1 TYS28    0.0000
    26 N          -56.3440   -25.5100     5.9280 N.am         1 TYS28    0.0000
    27 CA         -56.9190   -24.1580     5.8900 C.3          1 TYS28    0.0000
    28 CB         -55.9930   -23.0060     6.3020 C.3          1 TYS28    0.0000
    29 CG         -54.8180   -22.8060     5.3830 C.ar         1 TYS28    0.0000
    30 CD1        -54.8190   -21.7890     4.4350 C.ar         1 TYS28    0.0000
    31 CD2        -53.7060   -23.6410     5.4530 C.ar         1 TYS28    0.0000
    32 CE1        -53.7440   -21.6090     3.5800 C.ar         1 TYS28    0.0000
    33 CE2        -52.6230   -23.4580     4.6140 C.ar         1 TYS28    0.0000
    34 CZ         -52.6460   -22.4430     3.6730 C.ar         1 TYS28    0.0000
    35 OH         -51.6350   -22.2880     2.8570 O.3          1 TYS28    0.0000
    36 S          -50.4530   -21.2390     3.1420 S.o2         1 TYS28    0.0000
    37 O1         -50.9600   -19.8010     2.8850 O.co2        1 TYS28    0.0000
    38 O2         -49.2300   -21.5600     2.2690 O.co2        1 TYS28    0.0000
    39 O3         -50.0530   -21.4090     4.5550 O.co2        1 TYS28   -1.0000
    40 C          -57.4930   -23.8020     4.5400 C.2          1 TYS28    0.0000
    41 O          -57.4440   -24.5380     3.5490 O.2          1 TYS28    0.0000
    42 H21        -57.6832   -24.1546     6.5350 H            1 TYS28    0.0000
    43 H22        -55.6453   -23.1952     7.2203 H            1 TYS28    0.0000
    44 H23        -56.5286   -22.1617     6.3158 H            1 TYS28    0.0000
    45 H24        -55.6079   -21.1780     4.3693 H            1 TYS28    0.0000
    46 H25        -53.6907   -24.3850     6.1210 H            1 TYS28    0.0000
    47 H26        -53.7625   -20.8780     2.8978 H            1 TYS28    0.0000
    48 H27        -51.8254   -24.0569     4.6865 H            1 TYS28    0.0000
    49 H28        -55.7009   -25.8035     5.2207 H            1 TYS28    0.0000
    50 N          -55.5900   -28.1730     8.1110 N.am         2 ILE29    0.0000
    51 CA         -56.1780   -27.7760     6.8360 C.3          2 ILE29    0.0000
    52 C          -56.6850   -26.3410     6.9100 C.2          2 ILE29    0.0000
    53 O          -57.3660   -25.9800     7.8640 O.2          2 ILE29    0.0000
    54 CB         -57.3510   -28.6950     6.4520 C.3          2 ILE29    0.0000
    55 CG1        -56.8490   -30.1100     6.1680 C.3          2 ILE29    0.0000
    56 CG2        -58.0730   -28.1530     5.2300 C.3          2 ILE29    0.0000
    57 CD1        -57.9280   -31.1720     6.2910 C.3          2 ILE29    0.0000
    58 H10        -55.4768   -27.8341     6.1254 H            2 ILE29    0.0000
    59 HB         -57.9950   -28.7301     7.2162 H            2 ILE29    0.0000
    60 HG11       -56.1194   -30.3233     6.8178 H            2 ILE29    0.0000
    61 HG12       -56.4844   -30.1356     5.2372 H            2 ILE29    0.0000
    62 HG21       -58.8312   -28.7608     4.9940 H            2 ILE29    0.0000
    63 HG22       -58.4277   -27.2397     5.4302 H            2 ILE29    0.0000
    64 HG23       -57.4352   -28.1018     4.4615 H            2 ILE29    0.0000
    65 HD11       -57.5355   -32.0704     6.0937 H            2 ILE29    0.0000
    66 HD12       -58.2969   -31.1663     7.2204 H            2 ILE29    0.0000
    67 HD13       -58.6619   -30.9785     5.6399 H            2 ILE29    0.0000
    68 H20        -56.1730   -28.5611     8.8248 H            2 ILE29    0.0000
    69 N          -58.0310   -22.6020     4.4970 N.am         3 THR31    0.0000
    70 CA         -58.7430   -22.1760     3.3200 C.3          3 THR31    0.0000
    71 C          -58.2700   -20.7610     2.9850 C.2          3 THR31    0.0000
    72 O          -57.9290   -20.0000     3.8880 O.2          3 THR31    0.0000
    73 CB         -60.2300   -22.2610     3.6310 C.3          3 THR31    0.0000
    74 OG1        -60.8370   -23.2760     2.8280 O.3          3 THR31    0.0000
    75 CG2        -60.8950   -20.9660     3.4010 C.3          3 THR31    0.0000
    76 H29        -58.5262   -22.7884     2.5597 H            3 THR31    0.0000
    77 H30        -60.3401   -22.5086     4.5936 H            3 THR31    0.0000
    78 HG1        -60.3438   -23.3550     1.9617 H            3 THR31    0.0000
    79 H32        -61.8689   -21.0492     3.6123 H            3 THR31    0.0000
    80 H33        -60.4841   -20.2709     3.9909 H            3 THR31    0.0000
    81 H34        -60.7832   -20.6993     2.4437 H            3 THR31    0.0000
    82 H35        -57.9456   -21.9866     5.2806 H            3 THR31    0.0000
    83 N          -58.1950   -20.4050     1.7060 N.am         4 GLN32    0.0000
    84 CA         -57.7590   -19.0420     1.3710 C.3          4 GLN32    0.0000
    85 C          -58.4810   -18.3940     0.1960 C.2          4 GLN32    0.0000
    86 O          -58.1210   -17.2770    -0.1910 O.co2        4 GLN32    0.0000
    87 CB         -56.2450   -18.9610     1.1790 C.3          4 GLN32    0.0000
    88 CG         -55.7080   -19.7860     0.0270 C.3          4 GLN32    0.0000
    89 CD         -54.1940   -19.8160     0.0300 C.2          4 GLN32    0.0000
    90 OE1        -53.5490   -18.8060     0.3090 O.2          4 GLN32    0.0000
    91 NE2        -53.6160   -20.9800    -0.2470 N.am         4 GLN32    0.0000
    92 OXT        -59.4320   -18.9530    -0.3620 O.co2        4 GLN32   -1.0000
    93 H36        -58.4316   -21.0545     0.9834 H            4 GLN32    0.0000
    94 H37        -57.9682   -18.4789     2.1705 H            4 GLN32    0.0000
    95 H38        -55.8069   -19.2782     2.0201 H            4 GLN32    0.0000
    96 H39        -56.0023   -18.0045     1.0169 H            4 GLN32    0.0000
    97 H40        -56.0241   -19.3877    -0.8340 H            4 GLN32    0.0000
    98 HG2        -56.0524   -20.7213     0.1079 H            4 GLN32    0.0000
    99 HE21       -52.6187   -21.0530    -0.2579 H            4 GLN32    0.0000
   100 HE22       -54.1783   -21.7830    -0.4446 H            4 GLN32    0.0000
   101 H44        -51.9407   -29.2038    10.2515 H            4 GLN32    0.0000
@<TRIPOS>BOND
     1    1    2       1
     2    2    3       1
     3    2   15       1
     4    3    4       1
     5    4    5      ar
     6    4    6      ar
     7    5    7      ar
     8    6    8      ar
     9    7    9      ar
    10    8    9      ar
    11    9   10       1
    12   10   11       1
    13   11   12      ar
    14   11   13      ar
    15   11   14      ar
    16   15   16       2
    17    1   17       1
    18    1   18       1
    19    2   19       1
    20    3   20       1
    21    3   21       1
    22    5   22       1
    23    6   23       1
    24    7   24       1
    25    8   25       1
    26    1  101       1
    27   57   67       1
    28   15   50      am
    29   50   51       1
    30   51   54       1
    31   51   52       1
    32   54   56       1
    33   54   55       1
    34   55   57       1
    35   52   53       2
    36   57   66       1
    37   57   65       1
    38   51   58       1
    39   75   81       1
    40   54   59       1
    41   55   60       1
    42   55   61       1
    43   56   62       1
    44   56   63       1
    45   56   64       1
    46   50   68       1
    47   52   26      am
    48   26   27       1
    49   27   28       1
    50   27   40       1
    51   28   29       1
    52   29   30      ar
    53   29   31      ar
    54   30   32      ar
    55   31   33      ar
    56   32   34      ar
    57   33   34      ar
    58   34   35       1
    59   35   36       1
    60   36   37      ar
    61   36   38      ar
    62   36   39      ar
    63   40   41       2
    64   91   99       1
    65   33   48       1
    66   27   42       1
    67   28   43       1
    68   28   44       1
    69   30   45       1
    70   31   46       1
    71   32   47       1
    72   26   49       1
    73   40   69      am
    74   69   70       1
    75   70   73       1
    76   70   71       1
    77   73   75       1
    78   73   74       1
    79   71   72       2
    80   75   80       1
    81   75   79       1
    82   70   76       1
    83   71   83      am
    84   73   77       1
    85   74   78       1
    86   69   82       1
    87   83   84       1
    88   84   87       1
    89   84   85       1
    90   87   88       1
    91   88   89       1
    92   89   90       2
    93   89   91      am
    94   85   86      ar
    95   85   92      ar
    96   91  100       1
    97   83   93       1
    98   84   94       1
    99   87   95       1
   100   87   96       1
   101   88   97       1
   102   88   98       1
@<TRIPOS>SUBSTRUCTURE
     1 TYS28       1 GROUP             4 P     TYS     0 **** TYS P  28
     2 ILE29      50 RESIDUE           4 P     ILE     0 **** ILE P  29
     3 THR31      69 RESIDUE           4 P     THR     0 **** THR P  31
     4 GLN32      83 RESIDUE           4 P     GLN     0 **** GLN P  32
