@<TRIPOS>MOLECULE
4uun_NAI_2_ligand
   71    75     1     0     0
SMALL
NO_CHARGES


@<TRIPOS>ATOM
     1 PA           3.2240   -14.0390     9.3660 P.3          1 NAI345   0.0000
     2 O1A          2.6330   -14.8240     8.2190 O.co2        1 NAI345   0.0000
     3 O2A          4.6100   -13.4430     9.2450 O.co2        1 NAI345  -1.0000
     4 O5B          3.1920   -14.9690    10.6830 O.3          1 NAI345   0.0000
     5 C5B          2.0190   -15.6360    11.1430 C.3          1 NAI345   0.0000
     6 C4B          2.4440   -16.7970    12.0350 C.3          1 NAI345   0.0000
     7 O4B          1.3060   -17.4940    12.5560 O.3          1 NAI345   0.0000
     8 C3B          3.2780   -17.8350    11.2890 C.3          1 NAI345   0.0000
     9 O3B          4.5020   -18.0450    12.0010 O.3          1 NAI345   0.0000
    10 C2B          2.4220   -19.0950    11.2610 C.3          1 NAI345   0.0000
    11 O2B          3.1810   -20.3100    11.2890 O.3          1 NAI345   0.0000
    12 C1B          1.6010   -18.8960    12.5200 C.3          1 NAI345   0.0000
    13 N9A          0.3660   -19.7060    12.6350 N.pl3        1 NAI345   0.0000
    14 C8A         -0.5330   -20.0210    11.6780 C.2          1 NAI345   0.0000
    15 N7A         -1.5370   -20.7760    12.2070 N.2          1 NAI345   0.0000
    16 C5A         -1.2810   -20.9440    13.5210 C.ar         1 NAI345   0.0000
    17 C6A         -1.9230   -21.6250    14.6730 C.ar         1 NAI345   0.0000
    18 N6A         -3.0830   -22.3100    14.5230 N.pl3        1 NAI345   0.0000
    19 N1A         -1.3060   -21.5410    15.8800 N.ar         1 NAI345   0.0000
    20 C2A         -0.1480   -20.8630    16.0590 C.ar         1 NAI345   0.0000
    21 N3A          0.4870   -20.2300    15.0520 N.ar         1 NAI345   0.0000
    22 C4A         -0.0170   -20.2400    13.7930 C.ar         1 NAI345   0.0000
    23 O3           2.1940   -12.8560     9.7260 O.3          1 NAI345   0.0000
    24 PN           2.3080   -11.4860    10.5650 P.3          1 NAI345   0.0000
    25 O1N          2.7980   -10.3910     9.6400 O.co2        1 NAI345   0.0000
    26 O2N          3.0380   -11.7850    11.8550 O.co2        1 NAI345  -1.0000
    27 O5D          0.7620   -11.1910    10.9020 O.3          1 NAI345   0.0000
    28 C5D          0.0350   -12.1500    11.6540 C.3          1 NAI345   0.0000
    29 C4D         -1.4330   -11.7620    11.7410 C.3          1 NAI345   0.0000
    30 O4D         -1.6410   -10.5120    12.4050 O.3          1 NAI345   0.0000
    31 C3D         -2.0680   -11.6090    10.3720 C.3          1 NAI345   0.0000
    32 O3D         -2.4780   -12.8870     9.8620 O.3          1 NAI345   0.0000
    33 C2D         -3.2250   -10.6700    10.6410 C.3          1 NAI345   0.0000
    34 O2D         -4.3990   -11.4530    10.8430 O.3          1 NAI345   0.0000
    35 C1D         -2.8770    -9.9480    11.9450 C.3          1 NAI345   0.0000
    36 N1N         -2.7970    -8.4740    11.8330 N.pl3        1 NAI345   0.0000
    37 C2N         -3.5500    -7.7520    12.6670 C.2          1 NAI345   0.0000
    38 C3N         -3.5760    -6.3620    12.6790 C.2          1 NAI345   0.0000
    39 C7N         -4.4440    -5.5850    13.6560 C.2          1 NAI345   0.0000
    40 O7N         -4.2600    -4.4330    14.0250 O.2          1 NAI345   0.0000
    41 N7N         -5.5260    -6.1910    14.1920 N.am         1 NAI345   0.0000
    42 C4N         -2.7030    -5.5970    11.7180 C.3          1 NAI345   0.0000
    43 C5N         -1.9180    -6.4810    10.8610 C.2          1 NAI345   0.0000
    44 C6N         -1.9900    -7.8710    10.9510 C.2          1 NAI345   0.0000
    45 H5B1         1.4995   -15.9827    10.3621 H            1 NAI345   0.0000
    46 H5B2         1.4512   -14.9994    11.6649 H            1 NAI345   0.0000
    47 H4B          2.9812   -16.4385    12.7985 H            1 NAI345   0.0000
    48 H3B          3.4674   -17.5236    10.3578 H            1 NAI345   0.0000
    49 H5           4.2989   -18.3739    12.9233 H            1 NAI345   0.0000
    50 H2B          1.8249   -19.0841    10.4589 H            1 NAI345   0.0000
    51 H7           3.3249   -20.5914    12.2378 H            1 NAI345   0.0000
    52 H1B          2.1834   -19.1087    13.3046 H            1 NAI345   0.0000
    53 H8A         -0.4712   -19.7410    10.7200 H            1 NAI345   0.0000
    54 H6A1        -3.5016   -22.7629    15.3102 H            1 NAI345   0.0000
    55 H6A2        -3.5202   -22.3625    13.6251 H            1 NAI345   0.0000
    56 H2A          0.2525   -20.8303    16.9747 H            1 NAI345   0.0000
    57 H5D1         0.4164   -12.2016    12.5770 H            1 NAI345   0.0000
    58 H5D2         0.1131   -13.0430    11.2107 H            1 NAI345   0.0000
    59 H4D         -1.9227   -12.4753    12.2423 H            1 NAI345   0.0000
    60 H3D         -1.4206   -11.1813     9.7412 H            1 NAI345   0.0000
    61 H17         -2.8939   -12.7683     8.9604 H            1 NAI345   0.0000
    62 H2D         -3.3472   -10.0215     9.8896 H            1 NAI345   0.0000
    63 H19         -4.1466   -12.3365    11.2376 H            1 NAI345   0.0000
    64 H1D         -3.5845   -10.1677    12.6167 H            1 NAI345   0.0000
    65 H2N         -4.1287    -8.2395    13.3208 H            1 NAI345   0.0000
    66 H7N1        -6.1085    -5.6956    14.8364 H            1 NAI345   0.0000
    67 H7N2        -5.7443    -7.1349    13.9443 H            1 NAI345   0.0000
    68 H4N1        -2.0780    -5.0182    12.2418 H            1 NAI345   0.0000
    69 H4N2        -3.2848    -5.0231    11.1416 H            1 NAI345   0.0000
    70 H5N         -1.3052    -6.0742    10.1835 H            1 NAI345   0.0000
    71 H6N         -1.4261    -8.4299    10.3430 H            1 NAI345   0.0000
@<TRIPOS>BOND
     1    1    2      ar
     2    1    3      ar
     3    1    4       1
     4    1   23       1
     5    4    5       1
     6    5    6       1
     7    6    7       1
     8    6    8       1
     9    7   12       1
    10    8    9       1
    11    8   10       1
    12   10   11       1
    13   10   12       1
    14   12   13       1
    15   13   14       1
    16   13   22       1
    17   14   15       2
    18   15   16       1
    19   16   17      ar
    20   16   22      ar
    21   17   18       1
    22   17   19      ar
    23   19   20      ar
    24   20   21      ar
    25   21   22      ar
    26   23   24       1
    27   24   25      ar
    28   24   26      ar
    29   24   27       1
    30   27   28       1
    31   28   29       1
    32   29   30       1
    33   29   31       1
    34   30   35       1
    35   31   32       1
    36   31   33       1
    37   33   34       1
    38   33   35       1
    39   35   36       1
    40   36   37       1
    41   36   44       1
    42   37   38       2
    43   38   39       1
    44   38   42       1
    45   39   40       2
    46   39   41      am
    47   42   43       1
    48   43   44       2
    49   44   71       1
    50    5   45       1
    51    5   46       1
    52    6   47       1
    53    8   48       1
    54    9   49       1
    55   10   50       1
    56   11   51       1
    57   12   52       1
    58   14   53       1
    59   18   54       1
    60   18   55       1
    61   20   56       1
    62   43   70       1
    63   28   57       1
    64   28   58       1
    65   29   59       1
    66   31   60       1
    67   32   61       1
    68   33   62       1
    69   34   63       1
    70   35   64       1
    71   37   65       1
    72   41   66       1
    73   41   67       1
    74   42   68       1
    75   42   69       1
@<TRIPOS>SUBSTRUCTURE
     1 NAI345      1 GROUP             4 B     NAI     0 **** NAI B 345
