@<TRIPOS>MOLECULE
3ecg_065_1_ligand
   76    80     1     0     0
SMALL
NO_CHARGES


@<TRIPOS>ATOM
     1 C2          15.4450     6.6070    19.7660 C.ar         1 065201   0.0000
     2 O39         14.6370     5.5610    20.0490 O.3          1 065201   0.0000
     3 C40         14.9870     5.1280    21.3730 C.3          1 065201   0.0000
     4 O41         15.9910     6.0080    21.8770 O.3          1 065201   0.0000
     5 C3          16.2690     6.8730    20.8860 C.ar         1 065201   0.0000
     6 C4          17.1580     7.8770    20.8320 C.ar         1 065201   0.0000
     7 C5          17.2100     8.6020    19.6530 C.ar         1 065201   0.0000
     8 C6          16.4100     8.3620    18.5370 C.ar         1 065201   0.0000
     9 C7          15.5040     7.3180    18.6300 C.ar         1 065201   0.0000
    10 S8          18.5930     9.7300    19.4370 S.o2         1 065201   0.0000
    11 O9          18.9710    10.2360    20.7060 O.2          1 065201   0.0000
    12 O10         18.1460    10.7090    18.4250 O.2          1 065201   0.0000
    13 N11         19.8510     8.8270    18.7790 N.3          1 065201   0.0000
    14 C12         20.4730     7.9120    19.7000 C.3          1 065201   0.0000
    15 C13         22.0270     7.8310    19.5820 C.3          1 065201   0.0000
    16 C14         22.3560     6.5500    20.4080 C.3          1 065201   0.0000
    17 C15         22.5680     9.0450    20.3800 C.3          1 065201   0.0000
    18 C16         19.8280     8.7590    17.3100 C.3          1 065201   0.0000
    19 C17         21.0690     9.4830    16.7160 C.3          1 065201   0.0000
    20 O18         21.2550     9.0740    15.3430 O.3          1 065201   0.0000
    21 C19         20.8820    11.0230    16.7450 C.3          1 065201   0.0000
    22 N20         22.1420    11.6790    16.3930 N.am         1 065201   0.0000
    23 C21         22.9770    12.3110    17.2160 C.2          1 065201   0.0000
    24 O22         22.8220    12.4390    18.4160 O.2          1 065201   0.0000
    25 O23         24.0520    12.8050    16.5210 O.3          1 065201   0.0000
    26 C24         24.9200    13.7760    17.1420 C.3          1 065201   0.0000
    27 C25         26.3530    13.3550    16.7310 C.3          1 065201   0.0000
    28 O26         26.5410    13.8630    15.4390 O.3          1 065201   0.0000
    29 C27         25.8160    15.0750    15.2440 C.3          1 065201   0.0000
    30 O28         25.0380    15.0120    14.0530 O.3          1 065201   0.0000
    31 C29         23.6420    14.9250    14.3340 C.3          1 065201   0.0000
    32 C30         23.5060    15.4820    15.7690 C.3          1 065201   0.0000
    33 C31         24.8570    15.1580    16.4600 C.3          1 065201   0.0000
    34 C32         19.7980    11.6110    15.7960 C.3          1 065201   0.0000
    35 C33         20.1490    13.8780    14.7860 C.ar         1 065201   0.0000
    36 C34         20.1100    15.2820    14.8180 C.ar         1 065201   0.0000
    37 C35         19.6450    15.9200    15.9730 C.ar         1 065201   0.0000
    38 C36         19.2320    15.1680    17.0660 C.ar         1 065201   0.0000
    39 C37         19.2870    13.7660    16.9930 C.ar         1 065201   0.0000
    40 C38         19.7430    13.1100    15.8590 C.ar         1 065201   0.0000
    41 H1          15.3406     4.1932    21.3414 H            1 065201   0.0000
    42 H2          14.1810     5.1596    21.9640 H            1 065201   0.0000
    43 H3          17.7541     8.0913    21.6057 H            1 065201   0.0000
    44 H4          16.4864     8.9170    17.7087 H            1 065201   0.0000
    45 H5          14.9030     7.0977    17.8617 H            1 065201   0.0000
    46 H6          20.0992     6.9995    19.5340 H            1 065201   0.0000
    47 H7          20.2451     8.2015    20.6296 H            1 065201   0.0000
    48 H8          22.3554     7.7940    18.6382 H            1 065201   0.0000
    49 H9          23.3438     6.3947    20.4029 H            1 065201   0.0000
    50 H10         22.0425     6.6710    21.3498 H            1 065201   0.0000
    51 H11         21.8927     5.7628    20.0010 H            1 065201   0.0000
    52 H12         23.5673     9.0499    20.3426 H            1 065201   0.0000
    53 H13         22.2153     9.8909    19.9798 H            1 065201   0.0000
    54 H14         22.2704     8.9773    21.3323 H            1 065201   0.0000
    55 H15         18.9962     9.1997    16.9725 H            1 065201   0.0000
    56 H16         19.8371     7.8008    17.0241 H            1 065201   0.0000
    57 H17         21.8803     9.2382    17.2469 H            1 065201   0.0000
    58 H18         20.3683     8.8491    14.9391 H            1 065201   0.0000
    59 H19         20.6482    11.2872    17.6807 H            1 065201   0.0000
    60 H20         22.4049    11.6495    15.4286 H            1 065201   0.0000
    61 H21         24.7995    13.8265    18.1334 H            1 065201   0.0000
    62 H22         26.4368    12.3585    16.7295 H            1 065201   0.0000
    63 H23         27.0251    13.7451    17.3603 H            1 065201   0.0000
    64 H24         26.4345    15.8605    15.2241 H            1 065201   0.0000
    65 H25         23.3306    13.9757    14.2915 H            1 065201   0.0000
    66 H26         23.1155    15.4778    13.6881 H            1 065201   0.0000
    67 H27         22.7507    15.0353    16.2486 H            1 065201   0.0000
    68 H28         23.3503    16.4696    15.7487 H            1 065201   0.0000
    69 H29         25.1284    15.8869    17.0886 H            1 065201   0.0000
    70 H30         18.9058    11.2445    16.0598 H            1 065201   0.0000
    71 H31         20.0074    11.3354    14.8578 H            1 065201   0.0000
    72 H32         20.4810    13.4210    13.9608 H            1 065201   0.0000
    73 H33         20.4098    15.8167    14.0279 H            1 065201   0.0000
    74 H34         19.6098    16.9186    16.0120 H            1 065201   0.0000
    75 H35         18.8997    15.6191    17.8943 H            1 065201   0.0000
    76 H36         18.9892    13.2261    17.7803 H            1 065201   0.0000
@<TRIPOS>BOND
     1    1    2       1
     2    1    5      ar
     3    1    9      ar
     4    2    3       1
     5    3    4       1
     6    4    5       1
     7    5    6      ar
     8    6    7      ar
     9    7    8      ar
    10    7   10       1
    11    8    9      ar
    12   10   11       2
    13   10   12       2
    14   10   13       1
    15   13   14       1
    16   13   18       1
    17   14   15       1
    18   15   16       1
    19   15   17       1
    20   18   19       1
    21   19   20       1
    22   19   21       1
    23   21   22       1
    24   21   34       1
    25   22   23      am
    26   23   24       2
    27   23   25       1
    28   25   26       1
    29   26   27       1
    30   26   33       1
    31   27   28       1
    32   28   29       1
    33   29   30       1
    34   29   33       1
    35   30   31       1
    36   31   32       1
    37   32   33       1
    38   34   40       1
    39   35   36      ar
    40   35   40      ar
    41   36   37      ar
    42   37   38      ar
    43   38   39      ar
    44   39   40      ar
    45    3   41       1
    46    3   42       1
    47    6   43       1
    48    8   44       1
    49    9   45       1
    50   14   46       1
    51   14   47       1
    52   15   48       1
    53   16   49       1
    54   16   50       1
    55   16   51       1
    56   17   52       1
    57   17   53       1
    58   17   54       1
    59   18   55       1
    60   18   56       1
    61   19   57       1
    62   20   58       1
    63   21   59       1
    64   22   60       1
    65   26   61       1
    66   27   62       1
    67   27   63       1
    68   29   64       1
    69   31   65       1
    70   31   66       1
    71   32   67       1
    72   32   68       1
    73   33   69       1
    74   34   70       1
    75   34   71       1
    76   35   72       1
    77   36   73       1
    78   37   74       1
    79   38   75       1
    80   39   76       1
@<TRIPOS>SUBSTRUCTURE
     1 065201      1 GROUP             4 A     065     0 **** 065 A 201
