@<TRIPOS>MOLECULE
4c1e_MCO_1_ligand
   27    27     1     0     0
SMALL
NO_CHARGES


@<TRIPOS>ATOM
     1 O2          75.7530     5.6130    56.4370 O.co2        1 MCO350   0.0000
     2 C9          75.2250     4.9570    57.3520 C.2          1 MCO350   0.0000
     3 O3          74.6140     3.9540    57.0960 O.co2        1 MCO350  -1.0000
     4 C8          75.2870     5.4580    58.7130 C.3          1 MCO350   0.0000
     5 C7          76.0720     4.5180    59.5830 C.3          1 MCO350   0.0000
     6 C6          77.4600     4.9910    59.5200 C.3          1 MCO350   0.0000
     7 C5          77.3740     6.4510    59.1960 C.3          1 MCO350   0.0000
     8 N           76.0350     6.6750    58.7390 N.am         1 MCO350   0.0000
     9 C4          75.5320     7.9470    58.3570 C.2          1 MCO350   0.0000
    10 O1          74.4300     8.0340    57.9990 O.2          1 MCO350   0.0000
    11 C2          76.4800     9.0930    58.4050 C.3          1 MCO350   0.0000
    12 C3          76.1050    10.0520    59.5210 C.3          1 MCO350   0.0000
    13 C1          76.4060     9.8270    57.0910 C.3          1 MCO350   0.0000
    14 S           76.9360     8.8690    55.6150 S.3          1 MCO350  -1.0000
    15 H1          74.3680     5.5985    59.0815 H            1 MCO350   0.0000
    16 H2          76.0055     3.5826    59.2356 H            1 MCO350   0.0000
    17 H3          75.7348     4.5489    60.5239 H            1 MCO350   0.0000
    18 H4          77.9626     4.5040    58.8057 H            1 MCO350   0.0000
    19 H5          77.9154     4.8550    60.3999 H            1 MCO350   0.0000
    20 H6          78.0300     6.6872    58.4792 H            1 MCO350   0.0000
    21 H7          77.5593     6.9995    60.0114 H            1 MCO350   0.0000
    22 H8          77.4099     8.7549    58.5499 H            1 MCO350   0.0000
    23 H9          76.7524    10.8140    59.5373 H            1 MCO350   0.0000
    24 H10         75.1817    10.4023    59.3633 H            1 MCO350   0.0000
    25 H11         76.1340     9.5713    60.3974 H            1 MCO350   0.0000
    26 H12         76.9889    10.6368    57.1577 H            1 MCO350   0.0000
    27 H13         75.4573    10.1099    56.9497 H            1 MCO350   0.0000
@<TRIPOS>BOND
     1    1    2      ar
     2    2    3      ar
     3    2    4       1
     4    4    5       1
     5    4    8       1
     6    5    6       1
     7    6    7       1
     8    7    8       1
     9    8    9      am
    10    9   10       2
    11    9   11       1
    12   11   12       1
    13   11   13       1
    14   13   14       1
    15   13   27       1
    16    4   15       1
    17    5   16       1
    18    5   17       1
    19    6   18       1
    20    6   19       1
    21    7   20       1
    22    7   21       1
    23   11   22       1
    24   12   23       1
    25   12   24       1
    26   12   25       1
    27   13   26       1
@<TRIPOS>SUBSTRUCTURE
     1 MCO350      1 GROUP             4 A     MCO     0 **** MCO A 350
