@<TRIPOS>MOLECULE
3lm4_HPX_3_ligand
   25    25     1     0     0
SMALL
NO_CHARGES


@<TRIPOS>ATOM
     1 CB3          8.6520    52.0300    53.0080 C.ar         1 HPX406   0.0000
     2 CB4          8.5070    53.3850    53.4610 C.ar         1 HPX406   0.0000
     3 CB5          9.3740    54.4020    52.9160 C.ar         1 HPX406   0.0000
     4 CB6         10.3900    54.0530    51.9050 C.ar         1 HPX406   0.0000
     5 CB1         10.5350    52.6790    51.4490 C.ar         1 HPX406   0.0000
     6 CB2          9.6520    51.6780    52.0090 C.ar         1 HPX406   0.0000
     7 CA6         11.6430    52.3420    50.3500 C.2          1 HPX406   0.0000
     8 OA4         12.3540    53.2630    49.9230 O.2          1 HPX406   0.0000
     9 CA5         11.8010    51.0020    49.8740 C.2          1 HPX406   0.0000
    10 CA4         13.1060    50.4060    49.7120 C.2          1 HPX406   0.0000
    11 CA3         13.1450    49.0790    49.2310 C.3          1 HPX406   0.0000
    12 CA2         14.3350    48.4310    48.7990 C.2          1 HPX406   0.0000
    13 OA3         14.9460    48.8250    47.7530 O.2          1 HPX406   0.0000
    14 CA1         14.8560    47.2960    49.5700 C.2          1 HPX406   0.0000
    15 OA2         15.9090    46.7470    49.1570 O.co2        1 HPX406   0.0000
    16 OA1         14.2390    46.9060    50.6140 O.co2        1 HPX406  -1.0000
    17 HB3          8.0583    51.3183    53.3835 H            1 HPX406   0.0000
    18 HB4          7.8155    53.6204    54.1440 H            1 HPX406   0.0000
    19 HB5          9.2855    55.3488    53.2255 H            1 HPX406   0.0000
    20 HB6         10.9831    54.7657    51.5305 H            1 HPX406   0.0000
    21 HB2          9.7298    50.7286    51.7049 H            1 HPX406   0.0000
    22 HA5         10.9880    50.4654    49.6481 H            1 HPX406   0.0000
    23 HA4         13.9423    50.9090    49.9300 H            1 HPX406   0.0000
    24 HA31        12.5221    49.0543    48.4491 H            1 HPX406   0.0000
    25 HA32        12.7778    48.5113    49.9678 H            1 HPX406   0.0000
@<TRIPOS>BOND
     1    1    2      ar
     2    1    6      ar
     3    2    3      ar
     4    3    4      ar
     5    4    5      ar
     6    5    6      ar
     7    5    7       1
     8    7    8       2
     9    7    9       1
    10    9   10       2
    11   10   11       1
    12   11   12       1
    13   12   13       2
    14   12   14       1
    15   14   15      ar
    16   14   16      ar
    17    1   17       1
    18    2   18       1
    19    3   19       1
    20    4   20       1
    21    6   21       1
    22    9   22       1
    23   10   23       1
    24   11   24       1
    25   11   25       1
@<TRIPOS>SUBSTRUCTURE
     1 HPX406      1 GROUP             4 C     HPX     0 **** HPX C 406
