@<TRIPOS>MOLECULE
3rme_RME_2_ligand
   39    40     1     0     0
SMALL
NO_CHARGES


@<TRIPOS>ATOM
     1 C1          -0.5720    48.5580    49.6260 C.3          1 RME418   0.0000
     2 N1          -0.9360    46.7400    48.0240 N.am         1 RME418   0.0000
     3 O1          -1.5870    44.5610    48.4530 O.2          1 RME418   0.0000
     4 C2          -0.5420    47.0630    49.3860 C.3          1 RME418   0.0000
     5 N2          -1.3890    45.5760    43.8660 N.ar         1 RME418   0.0000
     6 C3          -1.4290    45.4940    47.6710 C.2          1 RME418   0.0000
     7 N3           0.2620    46.4390    45.3730 N.pl3        1 RME418   0.0000
     8 C4          -1.7870    45.3240    46.2320 C.ar         1 RME418   0.0000
     9 N4           2.8560    47.5810    45.5810 N.4          1 RME418   1.0000
    10 C5          -3.0010    44.6720    45.9450 C.ar         1 RME418   0.0000
    11 C6          -3.4030    44.4780    44.6300 C.ar         1 RME418   0.0000
    12 C7          -2.5690    44.9460    43.6350 C.ar         1 RME418   0.0000
    13 C8          -0.9710    45.7810    45.1580 C.ar         1 RME418   0.0000
    14 C9           1.3690    45.6280    45.9010 C.3          1 RME418   0.0000
    15 C10          2.3860    46.5430    46.5820 C.3          1 RME418   0.0000
    16 C11          1.7180    48.3890    44.9890 C.3          1 RME418   0.0000
    17 C12          0.6750    47.4520    44.3830 C.3          1 RME418   0.0000
    18 C13          3.9210    48.4660    46.1610 C.3          1 RME418   0.0000
    19 H1          -0.2973    48.7499    50.5682 H            1 RME418   0.0000
    20 H2           0.0599    49.0095    48.9960 H            1 RME418   0.0000
    21 H3          -1.4984    48.9017    49.4723 H            1 RME418   0.0000
    22 H4          -0.8481    47.4419    47.3171 H            1 RME418   0.0000
    23 H5          -1.1725    46.6180    50.0220 H            1 RME418   0.0000
    24 H6           0.3858    46.7257    49.5457 H            1 RME418   0.0000
    25 H7          -3.5783    44.3461    46.6936 H            1 RME418   0.0000
    26 H8          -4.2634    44.0171    44.4125 H            1 RME418   0.0000
    27 H9          -2.8515    44.8128    42.6850 H            1 RME418   0.0000
    28 H10          1.8113    45.1374    45.1502 H            1 RME418   0.0000
    29 H11          1.0139    44.9704    46.5654 H            1 RME418   0.0000
    30 H12          1.9585    46.9984    47.3629 H            1 RME418   0.0000
    31 H13          3.1661    46.0027    46.8974 H            1 RME418   0.0000
    32 H14          2.0756    48.9924    44.2762 H            1 RME418   0.0000
    33 H15          1.2923    48.9383    45.7081 H            1 RME418   0.0000
    34 H16         -0.1237    47.9843    44.1025 H            1 RME418   0.0000
    35 H17          1.0669    46.9935    43.5854 H            1 RME418   0.0000
    36 H18          4.2068    49.1364    45.4762 H            1 RME418   0.0000
    37 H19          3.5589    48.9419    46.9625 H            1 RME418   0.0000
    38 H20          4.7067    47.9092    46.4306 H            1 RME418   0.0000
    39 H21          3.2778    47.0810    44.8246 H            1 RME418   0.0000
@<TRIPOS>BOND
     1    1    4       1
     2    2    4       1
     3    2    6      am
     4    3    6       2
     5    5   12      ar
     6    5   13      ar
     7    6    8       1
     8    7   13       1
     9    7   14       1
    10    7   17       1
    11    8   10      ar
    12    8   13      ar
    13    9   15       1
    14    9   16       1
    15    9   18       1
    16   10   11      ar
    17   11   12      ar
    18   14   15       1
    19   16   17       1
    20    1   19       1
    21    1   20       1
    22    1   21       1
    23    2   22       1
    24    4   23       1
    25    4   24       1
    26   10   25       1
    27   11   26       1
    28   12   27       1
    29   14   28       1
    30   14   29       1
    31   15   30       1
    32   15   31       1
    33   16   32       1
    34   16   33       1
    35   17   34       1
    36   17   35       1
    37   18   36       1
    38   18   37       1
    39   18   38       1
    40    9   39       1
@<TRIPOS>SUBSTRUCTURE
     1 RME418      1 GROUP             4 B     RME     0 **** RME B 418
