@<TRIPOS>MOLECULE
3hko_ANP_1_ligand
   44    46     1     0     0
SMALL
NO_CHARGES


@<TRIPOS>ATOM
     1 PG          10.9310   -27.8130   -24.6080 P.3          1 ANP329   0.0000
     2 O1G         12.2770   -28.4380   -24.8900 O.co2        1 ANP329   0.0000
     3 O2G         11.0210   -26.5800   -23.7420 O.co2        1 ANP329  -1.0000
     4 O3G          9.8840   -28.8080   -24.1640 O.co2        1 ANP329  -1.0000
     5 PB           9.0070   -26.1290   -26.2860 P.3          1 ANP329   0.0000
     6 O1B          7.9390   -26.7300   -27.1670 O.co2        1 ANP329   0.0000
     7 O2B          8.6090   -25.7080   -24.8900 O.co2        1 ANP329  -1.0000
     8 N3B         10.3450   -27.2540   -26.1640 N.3          1 ANP329   0.0000
     9 PA          10.7490   -24.0260   -26.3270 P.3          1 ANP329   0.0000
    10 O1A         10.1540   -22.9160   -25.4920 O.co2        1 ANP329   0.0000
    11 O2A         11.6620   -25.0670   -25.7140 O.co2        1 ANP329  -1.0000
    12 O3A          9.5460   -24.8080   -27.0280 O.3          1 ANP329   0.0000
    13 O5'         11.5730   -23.3680   -27.5450 O.3          1 ANP329   0.0000
    14 C5'         12.2890   -24.2170   -28.4350 C.3          1 ANP329   0.0000
    15 C4'         13.6390   -23.5870   -28.7220 C.3          1 ANP329   0.0000
    16 O4'         13.4390   -22.3010   -29.3090 O.3          1 ANP329   0.0000
    17 C3'         14.4380   -23.3330   -27.4520 C.3          1 ANP329   0.0000
    18 O3'         15.3620   -24.3920   -27.1890 O.3          1 ANP329   0.0000
    19 C2'         15.2030   -22.0600   -27.7460 C.3          1 ANP329   0.0000
    20 O2'         16.5480   -22.4060   -28.0920 O.3          1 ANP329   0.0000
    21 C1'         14.4910   -21.4200   -28.9270 C.3          1 ANP329   0.0000
    22 N9          13.9020   -20.1510   -28.4550 N.pl3        1 ANP329   0.0000
    23 C8          12.7550   -20.0150   -27.7650 C.2          1 ANP329   0.0000
    24 N7          12.5200   -18.7070   -27.4820 N.2          1 ANP329   0.0000
    25 C5          13.5410   -17.9960   -27.9920 C.ar         1 ANP329   0.0000
    26 C6          13.9210   -16.5690   -28.0460 C.ar         1 ANP329   0.0000
    27 N6          13.1320   -15.6250   -27.4820 N.pl3        1 ANP329   0.0000
    28 N1          15.0790   -16.2530   -28.6740 N.ar         1 ANP329   0.0000
    29 C2          15.8600   -17.1890   -29.2380 C.ar         1 ANP329   0.0000
    30 N3          15.5780   -18.5010   -29.2260 N.ar         1 ANP329   0.0000
    31 C4          14.4500   -18.9520   -28.6280 C.ar         1 ANP329   0.0000
    32 H3B         11.1221   -26.8190   -26.6188 H            1 ANP329   0.0000
    33 H5'1        11.7769   -24.3200   -29.2878 H            1 ANP329   0.0000
    34 H5'2        12.4186   -25.1145   -28.0136 H            1 ANP329   0.0000
    35 H4'         14.1624   -24.1691   -29.3443 H            1 ANP329   0.0000
    36 H3'         13.8250   -23.2014   -26.6729 H            1 ANP329   0.0000
    37 H6          16.1582   -24.0274   -26.7061 H            1 ANP329   0.0000
    38 H2'         15.1891   -21.4499   -26.9538 H            1 ANP329   0.0000
    39 H8          16.9142   -21.7260   -28.7272 H            1 ANP329   0.0000
    40 H1'         15.1227   -21.2632   -29.6862 H            1 ANP329   0.0000
    41 H10         12.1583   -20.7716   -27.4976 H            1 ANP329   0.0000
    42 H11         13.3972   -14.6617   -27.5235 H            1 ANP329   0.0000
    43 H12         12.2838   -15.8908   -27.0238 H            1 ANP329   0.0000
    44 H13         16.6994   -16.8913   -29.6927 H            1 ANP329   0.0000
@<TRIPOS>BOND
     1    1    2      ar
     2    1    3      ar
     3    1    4      ar
     4    1    8       1
     5    5    6      ar
     6    5    7      ar
     7    5    8       1
     8    5   12       1
     9    9   10      ar
    10    9   11      ar
    11    9   12       1
    12    9   13       1
    13   13   14       1
    14   14   15       1
    15   15   16       1
    16   15   17       1
    17   16   21       1
    18   17   18       1
    19   17   19       1
    20   19   20       1
    21   19   21       1
    22   21   22       1
    23   22   23       1
    24   22   31       1
    25   23   24       2
    26   24   25       1
    27   25   26      ar
    28   25   31      ar
    29   26   27       1
    30   26   28      ar
    31   28   29      ar
    32   29   30      ar
    33   30   31      ar
    34   29   44       1
    35   27   43       1
    36   27   42       1
    37    8   32       1
    38   23   41       1
    39   14   33       1
    40   14   34       1
    41   15   35       1
    42   17   36       1
    43   18   37       1
    44   19   38       1
    45   20   39       1
    46   21   40       1
@<TRIPOS>SUBSTRUCTURE
     1 ANP329      1 GROUP             4 A     ANP     0 **** ANP A 329
