@<TRIPOS>MOLECULE
4pzd_NAD_9_ligand
   70    74     1     0     0
SMALL
NO_CHARGES


@<TRIPOS>ATOM
     1 PA         -34.1570  -127.3270    50.1910 P.3          1 NAD301   0.0000
     2 O1A        -33.8380  -126.9820    51.6240 O.co2        1 NAD301   0.0000
     3 O2A        -34.5890  -126.2200    49.2430 O.co2        1 NAD301  -1.0000
     4 O5B        -35.2950  -128.4650    50.2820 O.3          1 NAD301   0.0000
     5 C5B        -35.3550  -129.5780    51.1690 C.3          1 NAD301   0.0000
     6 C4B        -36.8380  -129.7620    51.4730 C.3          1 NAD301   0.0000
     7 O4B        -37.1200  -131.0980    51.9180 O.3          1 NAD301   0.0000
     8 C3B        -37.2590  -128.7820    52.5740 C.3          1 NAD301   0.0000
     9 O3B        -38.4190  -128.0170    52.1910 O.3          1 NAD301   0.0000
    10 C2B        -37.4670  -129.6850    53.7870 C.3          1 NAD301   0.0000
    11 O2B        -38.4300  -129.1460    54.6950 O.3          1 NAD301   0.0000
    12 C1B        -37.8630  -131.0290    53.1550 C.3          1 NAD301   0.0000
    13 N9A        -37.7110  -132.2080    54.0750 N.pl3        1 NAD301   0.0000
    14 C8A        -36.7310  -132.4510    54.9850 C.2          1 NAD301   0.0000
    15 N7A        -36.9300  -133.6290    55.6350 N.2          1 NAD301   0.0000
    16 C5A        -38.0880  -134.1570    55.1720 C.ar         1 NAD301   0.0000
    17 C6A        -38.9210  -135.3680    55.4280 C.ar         1 NAD301   0.0000
    18 N6A        -38.5740  -136.3060    56.3480 N.pl3        1 NAD301   0.0000
    19 N1A        -40.0580  -135.5210    54.6920 N.ar         1 NAD301   0.0000
    20 C2A        -40.4650  -134.6270    53.7780 C.ar         1 NAD301   0.0000
    21 N3A        -39.7560  -133.5040    53.5030 N.ar         1 NAD301   0.0000
    22 C4A        -38.5880  -133.2150    54.1410 C.ar         1 NAD301   0.0000
    23 O3         -32.9320  -128.1590    49.5160 O.3          1 NAD301   0.0000
    24 PN         -32.7180  -128.5550    47.9440 P.3          1 NAD301   0.0000
    25 O1N        -31.7550  -127.5380    47.3670 O.co2        1 NAD301   0.0000
    26 O2N        -34.0210  -128.8650    47.2220 O.co2        1 NAD301  -1.0000
    27 O5D        -31.9400  -129.9610    48.0440 O.3          1 NAD301   0.0000
    28 C5D        -32.6420  -131.1660    48.3170 C.3          1 NAD301   0.0000
    29 C4D        -31.7390  -132.3470    48.0320 C.3          1 NAD301   0.0000
    30 O4D        -31.5080  -132.5730    46.6380 O.3          1 NAD301   0.0000
    31 C3D        -30.3460  -132.1420    48.5620 C.3          1 NAD301   0.0000
    32 O3D        -30.2990  -132.2490    49.9870 O.3          1 NAD301   0.0000
    33 C2D        -29.6300  -133.2140    47.7590 C.3          1 NAD301   0.0000
    34 O2D        -30.0510  -134.5550    48.1040 O.3          1 NAD301   0.0000
    35 C1D        -30.1560  -133.0250    46.3710 C.3          1 NAD301   0.0000
    36 N1N        -29.3220  -132.1860    45.4320 N.ar         1 NAD301   1.0000
    37 C2N        -28.9520  -130.9020    45.7070 C.ar         1 NAD301   0.0000
    38 C3N        -28.1870  -130.1330    44.8060 C.ar         1 NAD301   0.0000
    39 C7N        -27.7850  -128.7150    45.1330 C.2          1 NAD301   0.0000
    40 O7N        -28.1450  -127.8050    44.4090 O.2          1 NAD301   0.0000
    41 N7N        -27.0370  -128.4760    46.2060 N.am         1 NAD301   0.0000
    42 C4N        -27.7900  -130.6950    43.5910 C.ar         1 NAD301   0.0000
    43 C5N        -28.1700  -132.0020    43.3080 C.ar         1 NAD301   0.0000
    44 C6N        -28.9290  -132.7210    44.2390 C.ar         1 NAD301   0.0000
    45 H5B1       -34.8455  -129.3866    52.0079 H            1 NAD301   0.0000
    46 H5B2       -34.9818  -130.3963    50.7317 H            1 NAD301   0.0000
    47 H4B        -37.3679  -129.5733    50.6462 H            1 NAD301   0.0000
    48 H3B        -36.5020  -128.1555    52.7598 H            1 NAD301   0.0000
    49 H5         -39.1830  -128.6369    52.0123 H            1 NAD301   0.0000
    50 H2B        -36.5952  -129.7943    54.2645 H            1 NAD301   0.0000
    51 H7         -39.3413  -129.4765    54.4494 H            1 NAD301   0.0000
    52 H1B        -38.8314  -130.9668    52.9136 H            1 NAD301   0.0000
    53 H8A        -35.9588  -131.8390    55.1556 H            1 NAD301   0.0000
    54 H6A1       -39.1578  -137.1050    56.4921 H            1 NAD301   0.0000
    55 H6A2       -37.7349  -136.1972    56.8809 H            1 NAD301   0.0000
    56 H2A        -41.3182  -134.7940    53.2839 H            1 NAD301   0.0000
    57 H5D1       -33.4540  -131.2185    47.7357 H            1 NAD301   0.0000
    58 H5D2       -32.9184  -131.1811    49.2779 H            1 NAD301   0.0000
    59 H4D        -32.1315  -133.1708    48.4409 H            1 NAD301   0.0000
    60 H3D        -30.0136  -131.2406    48.2847 H            1 NAD301   0.0000
    61 H17        -31.1739  -131.9556    50.3723 H            1 NAD301   0.0000
    62 H2D        -28.6361  -133.1114    47.8000 H            1 NAD301   0.0000
    63 H19        -29.5486  -135.2159    47.5465 H            1 NAD301   0.0000
    64 H1D        -30.2290  -133.9343    45.9614 H            1 NAD301   0.0000
    65 H2N        -29.2323  -130.4930    46.5754 H            1 NAD301   0.0000
    66 H7N1       -26.7670  -127.5393    46.4287 H            1 NAD301   0.0000
    67 H7N2       -26.7445  -129.2330    46.7903 H            1 NAD301   0.0000
    68 H4N        -27.2443  -130.1689    42.9387 H            1 NAD301   0.0000
    69 H5N        -27.9023  -132.4267    42.4431 H            1 NAD301   0.0000
    70 H6N        -29.1930  -133.6609    44.0223 H            1 NAD301   0.0000
@<TRIPOS>BOND
     1    1    2      ar
     2    1    3      ar
     3    1    4       1
     4    1   23       1
     5    4    5       1
     6    5    6       1
     7    6    7       1
     8    6    8       1
     9    7   12       1
    10    8    9       1
    11    8   10       1
    12   10   11       1
    13   10   12       1
    14   12   13       1
    15   13   14       1
    16   13   22       1
    17   14   15       2
    18   15   16       1
    19   16   17      ar
    20   16   22      ar
    21   17   18       1
    22   17   19      ar
    23   19   20      ar
    24   20   21      ar
    25   21   22      ar
    26   23   24       1
    27   24   25      ar
    28   24   26      ar
    29   24   27       1
    30   27   28       1
    31   28   29       1
    32   29   30       1
    33   29   31       1
    34   30   35       1
    35   31   32       1
    36   31   33       1
    37   33   34       1
    38   33   35       1
    39   35   36       1
    40   36   37      ar
    41   36   44      ar
    42   37   38      ar
    43   38   39       1
    44   38   42      ar
    45   39   40       2
    46   39   41      am
    47   42   43      ar
    48   43   44      ar
    49   44   70       1
    50    5   45       1
    51    5   46       1
    52    6   47       1
    53    8   48       1
    54    9   49       1
    55   10   50       1
    56   11   51       1
    57   12   52       1
    58   14   53       1
    59   18   54       1
    60   18   55       1
    61   20   56       1
    62   43   69       1
    63   28   57       1
    64   28   58       1
    65   29   59       1
    66   31   60       1
    67   32   61       1
    68   33   62       1
    69   34   63       1
    70   35   64       1
    71   37   65       1
    72   41   66       1
    73   41   67       1
    74   42   68       1
@<TRIPOS>SUBSTRUCTURE
     1 NAD301      1 GROUP             4 I     NAD     0 **** NAD I 301
