@<TRIPOS>MOLECULE
./coach420/2zdq/ligand.pdb
 41 39 0 0 0
SMALL
GASTEIGER

@<TRIPOS>ATOM
      1  N         44.4100   17.0960   -2.8260 N.3   401  DAL401     -0.1231
      2  CA        45.3090   18.2550   -2.8600 C.3   401  DAL401      0.1694
      3  CB        45.0060   19.1100   -4.0910 C.3   401  DAL401      0.0304
      4  C         46.7420   17.7870   -2.9110 C.2   401  DAL401      0.2593
      5  O         47.0090   16.4800   -3.0480 O.2   401  DAL401     -0.2718
      6  N         47.6420   18.8680   -2.5090 N.am  402  DAL402     -0.1944
      7  CA        49.0060   18.4780   -2.1350 C.3   402  DAL402      0.1979
      8  CB        49.5710   19.4730   -1.1200 C.3   402  DAL402      0.0356
      9  C         49.8830   18.4540   -3.3620 C.2   402  DAL402      0.3842
     10  O         49.4480   19.0180   -4.3860 O.co2 402  DAL402     -0.2437
     11  OXT       50.9640   17.8980   -3.3330 O.co2 402  DAL402     -0.2437
     12  O1G       46.1150   17.1970    0.7490 O.3   1501  ATP1501     0.0000
     13  O2G       44.7450   15.1020   -0.0200 O.3   1501  ATP1501     0.0000
     14  O3G       47.4920   15.1290   -0.0910 O.3   1501  ATP1501     0.0000
     15  PB        44.7980   14.8600    2.5900 P.3   1501  ATP1501     0.5373
     16  O1B       44.1330   13.5520    2.3240 O.3   1501  ATP1501    -0.1143
     17  O2B       43.7780   16.0710    2.7830 O.3   1501  ATP1501    -0.1143
     18  O3B       46.2760   15.1450    2.0220 O.2   1501  ATP1501    -0.2221
     19  PA        45.9870   13.3200    4.5350 P.3   1501  ATP1501     0.2231
     20  O1A       45.2500   12.0720    4.9210 O.3   1501  ATP1501    -0.4370
     21  O2A       47.4300   13.0490    3.8620 O.2   1501  ATP1501    -0.5169
     22  O3A       45.1700   14.6550    4.1760 O.3   1501  ATP1501    -0.2261
     23  O5'       46.4820   13.7640    6.0200 O.3   1501  ATP1501    -0.3111
     24  C5'       47.0550   15.0840    5.9570 C.3   1501  ATP1501     0.1813
     25  C4'       48.2290   15.2210    6.9380 C.3   1501  ATP1501     0.1801
     26  O4'       47.8360   14.8910    8.3100 O.3   1501  ATP1501    -0.3306
     27  C3'       49.3880   14.2670    6.6050 C.3   1501  ATP1501     0.2161
     28  O3'       50.2070   14.7770    5.5530 O.3   1501  ATP1501    -0.2175
     29  C2'       50.0940   14.1500    7.9620 C.3   1501  ATP1501     0.2337
     30  O2'       50.9780   15.2490    8.2030 O.3   1501  ATP1501    -0.2155
     31  C1'       48.9340   14.1310    8.9530 C.3   1501  ATP1501     0.2409
     32  N9        48.5140   12.7400    9.2260 N.ar  1501  ATP1501    -0.2693
     33  C8        47.4280   12.1120    8.7050 C.ar  1501  ATP1501     0.1816
     34  N7        47.3330   10.8940    9.1470 N.ar  1501  ATP1501    -0.2193
     35  C5        48.3520   10.6490    9.9870 C.ar  1501  ATP1501     0.1518
     36  C6        48.7650    9.5380   10.7550 C.ar  1501  ATP1501     0.1919
     37  N6        48.0380    8.3660   10.7270 N.pl3 1501  ATP1501    -0.1054
     38  N1        49.8810    9.6480   11.5130 N.ar  1501  ATP1501    -0.2040
     39  C2        50.5990   10.7780   11.5520 C.ar  1501  ATP1501     0.2016
     40  N3        50.2440   11.8490   10.8450 N.ar  1501  ATP1501    -0.2048
     41  C4        49.1400   11.8330   10.0550 C.ar  1501  ATP1501     0.1692
@<TRIPOS>BOND
     1     1     2    1
     2     2     3    1
     3     2     4    1
     4     4     5    2
     5     4     6   am
     6     6     7    1
     7     7     9    1
     8     7     8    1
     9     9    10   ar
    10     9    11   ar
    11    15    18    2
    12    15    16    1
    13    15    17    1
    14    15    22    1
    15    19    21    2
    16    19    22    1
    17    19    20    1
    18    19    23    1
    19    23    24    1
    20    24    25    1
    21    25    27    1
    22    25    26    1
    23    26    31    1
    24    27    28    1
    25    27    29    1
    26    29    30    1
    27    29    31    1
    28    31    32    1
    29    32    33   ar
    30    32    41   ar
    31    33    34   ar
    32    34    35   ar
    33    35    41   ar
    34    35    36   ar
    35    36    37    1
    36    36    38   ar
    37    38    39   ar
    38    39    40   ar
    39    40    41   ar
