@<TRIPOS>MOLECULE
2rl1_UD1_1_ligand
   64    66     1     0     0
SMALL
NO_CHARGES


@<TRIPOS>ATOM
     1 C1'         -1.4080    16.6400   -14.4220 C.3          1 UD1712   0.0000
     2 C2'         -0.4150    16.6250   -15.6020 C.3          1 UD1712   0.0000
     3 C3'          0.4530    15.3440   -15.4940 C.3          1 UD1712   0.0000
     4 C4'          1.2240    15.3360   -14.1550 C.3          1 UD1712   0.0000
     5 C5'          0.1960    15.4030   -12.9990 C.3          1 UD1712   0.0000
     6 C6'          0.8330    15.5620   -11.6170 C.3          1 UD1712   0.0000
     7 C7'         -1.5350    17.7910   -17.4810 C.2          1 UD1712   0.0000
     8 C8'         -2.2410    17.7630   -18.8130 C.3          1 UD1712   0.0000
     9 N2'         -1.1280    16.6100   -16.9160 N.am         1 UD1712   0.0000
    10 O1'         -2.2310    15.4740   -14.5330 O.3          1 UD1712   0.0000
    11 O3'          1.4040    15.2760   -16.5750 O.3          1 UD1712   0.0000
    12 O4'          2.0420    14.1720   -13.9910 O.3          1 UD1712   0.0000
    13 O5'         -0.6770    16.5690   -13.1630 O.3          1 UD1712   0.0000
    14 O6'          1.5080    16.8210   -11.5830 O.3          1 UD1712   0.0000
    15 O7'         -1.3410    18.8770   -16.9410 O.2          1 UD1712   0.0000
    16 N1          -7.4030    12.3990    -9.1230 N.pl3        1 UD1712   0.0000
    17 C2          -8.6000    11.8130    -8.6180 C.2          1 UD1712   0.0000
    18 N3          -9.7520    12.4650    -9.0290 N.pl3        1 UD1712   0.0000
    19 C4          -9.8220    13.6110    -9.8690 C.2          1 UD1712   0.0000
    20 C5          -8.5450    14.1290   -10.3240 C.2          1 UD1712   0.0000
    21 C6          -7.4240    13.5330    -9.9560 C.2          1 UD1712   0.0000
    22 O2          -8.6250    10.8150    -7.8870 O.2          1 UD1712   0.0000
    23 O4         -10.9180    14.0700   -10.1440 O.2          1 UD1712   0.0000
    24 C1B         -6.0870    11.7550    -8.7550 C.3          1 UD1712   0.0000
    25 C2B         -5.4330    11.0010    -9.8860 C.3          1 UD1712   0.0000
    26 O2'         -5.9710     9.6900   -10.0070 O.3          1 UD1712   0.0000
    27 C3B         -3.9500    10.9720    -9.4810 C.3          1 UD1712   0.0000
    28 C4B         -3.7610    12.3100    -8.7870 C.3          1 UD1712   0.0000
    29 O4B         -5.1240    12.7280    -8.3700 O.3          1 UD1712   0.0000
    30 O3B         -3.6470     9.9180    -8.5530 O.3          1 UD1712   0.0000
    31 C5B         -3.1150    13.4600    -9.6130 C.3          1 UD1712   0.0000
    32 O5B         -4.1840    14.2880   -10.0220 O.3          1 UD1712   0.0000
    33 PA          -4.1030    15.6640   -10.7690 P.3          1 UD1712   0.0000
    34 O1A         -5.4820    16.2100   -10.9470 O.co2        1 UD1712   0.0000
    35 O2A         -3.2090    16.4690    -9.9010 O.co2        1 UD1712  -1.0000
    36 O3A         -3.3210    15.7660   -12.1920 O.3          1 UD1712   0.0000
    37 PB          -3.5770    15.3900   -13.6980 P.3          1 UD1712   0.0000
    38 O1B         -4.1920    14.0480   -13.7460 O.co2        1 UD1712   0.0000
    39 O2B         -4.5570    16.3870   -14.2320 O.co2        1 UD1712  -1.0000
    40 H1'         -1.9703    17.4664   -14.4513 H            1 UD1712   0.0000
    41 H2'          0.1740    17.4316   -15.5519 H            1 UD1712   0.0000
    42 H3'         -0.1428    14.5418   -15.5324 H            1 UD1712   0.0000
    43 H4'          1.8071    16.1474   -14.1145 H            1 UD1712   0.0000
    44 H5'         -0.3616    14.5730   -13.0086 H            1 UD1712   0.0000
    45 H6'1         1.4867    14.8222   -11.4577 H            1 UD1712   0.0000
    46 H6'2         0.1242    15.5380   -10.9120 H            1 UD1712   0.0000
    47 H8'1        -2.4714    18.6965   -19.0879 H            1 UD1712   0.0000
    48 H8'2        -1.6414    17.3518   -19.4995 H            1 UD1712   0.0000
    49 H8'3        -3.0785    17.2222   -18.7350 H            1 UD1712   0.0000
    50 H11         -1.3072    15.7428   -17.3805 H            1 UD1712   0.0000
    51 H12          2.2521    15.7300   -16.3019 H            1 UD1712   0.0000
    52 H13          2.9525    14.3491   -14.3648 H            1 UD1712   0.0000
    53 H6'          1.5040    17.1762   -10.6482 H            1 UD1712   0.0000
    54 H15        -10.6207    12.0926    -8.7024 H            1 UD1712   0.0000
    55 H16         -8.5132    14.9352   -10.9148 H            1 UD1712   0.0000
    56 H17         -6.5547    13.9034   -10.2832 H            1 UD1712   0.0000
    57 H1B         -6.2362    11.1272    -7.9910 H            1 UD1712   0.0000
    58 H2B         -5.5463    11.5009   -10.7447 H            1 UD1712   0.0000
    59 H20         -5.2704     9.0741   -10.3673 H            1 UD1712   0.0000
    60 H3B         -3.3650    10.9086   -10.2896 H            1 UD1712   0.0000
    61 H4B         -3.2104    12.1641    -7.9651 H            1 UD1712   0.0000
    62 H23         -2.6739     9.9448    -8.3242 H            1 UD1712   0.0000
    63 H5B1        -2.6365    13.0903   -10.4095 H            1 UD1712   0.0000
    64 H5B2        -2.4716    13.9760    -9.0475 H            1 UD1712   0.0000
@<TRIPOS>BOND
     1    1    2       1
     2    1   10       1
     3    1   13       1
     4    2    3       1
     5    2    9       1
     6    3    4       1
     7    3   11       1
     8    4    5       1
     9    4   12       1
    10    5    6       1
    11    5   13       1
    12    6   14       1
    13    7    8       1
    14    7    9      am
    15    7   15       2
    16   10   37       1
    17   16   17       1
    18   16   21       1
    19   16   24       1
    20   17   18       1
    21   17   22       2
    22   18   19       1
    23   19   20       1
    24   19   23       2
    25   20   21       2
    26   24   25       1
    27   24   29       1
    28   25   26       1
    29   25   27       1
    30   27   28       1
    31   27   30       1
    32   28   29       1
    33   28   31       1
    34   31   32       1
    35   32   33       1
    36   33   34      ar
    37   33   35      ar
    38   33   36       1
    39   36   37       1
    40   37   38      ar
    41   37   39      ar
    42    1   40       1
    43    2   41       1
    44    3   42       1
    45    4   43       1
    46    5   44       1
    47    6   45       1
    48    6   46       1
    49    8   47       1
    50    8   48       1
    51    8   49       1
    52    9   50       1
    53   11   51       1
    54   12   52       1
    55   14   53       1
    56   18   54       1
    57   20   55       1
    58   21   56       1
    59   24   57       1
    60   25   58       1
    61   26   59       1
    62   27   60       1
    63   28   61       1
    64   30   62       1
    65   31   63       1
    66   31   64       1
@<TRIPOS>SUBSTRUCTURE
     1 UD1712      1 GROUP             4 A     UD1     0 **** UD1 A 712
