@<TRIPOS>MOLECULE
5d2e_NAP_1_ligand
   73    77     1     0     0
SMALL
NO_CHARGES


@<TRIPOS>ATOM
     1 PA          11.4880    31.4810     0.5020 P.3          1 NAP601   0.0000
     2 O1A         11.9690    32.1490    -0.8140 O.co2        1 NAP601   0.0000
     3 O2A         10.0880    30.9200     0.6760 O.co2        1 NAP601  -1.0000
     4 O5B         12.4900    30.2310     0.6450 O.3          1 NAP601   0.0000
     5 C5B         12.2170    29.2320     1.6190 C.3          1 NAP601   0.0000
     6 C4B         12.3570    27.9390     0.8550 C.3          1 NAP601   0.0000
     7 O4B         12.0990    26.8580     1.7770 O.3          1 NAP601   0.0000
     8 C3B         11.3420    27.7510    -0.3060 C.3          1 NAP601   0.0000
     9 O3B         12.0150    27.7670    -1.5690 O.3          1 NAP601   0.0000
    10 C2B         10.7410    26.3570    -0.0630 C.3          1 NAP601   0.0000
    11 O2B         10.6670    25.6210    -1.2520 O.3          1 NAP601   0.0000
    12 C1B         11.7010    25.7560     0.9910 C.3          1 NAP601   0.0000
    13 N9A         11.0790    24.8000     1.8970 N.pl3        1 NAP601   0.0000
    14 C8A          9.9670    24.9890     2.7070 C.2          1 NAP601   0.0000
    15 N7A          9.6430    23.8310     3.3810 N.2          1 NAP601   0.0000
    16 C5A         10.5920    22.9270     3.0640 C.ar         1 NAP601   0.0000
    17 C6A         10.8560    21.5460     3.3990 C.ar         1 NAP601   0.0000
    18 N6A         10.0180    20.9390     4.3020 N.pl3        1 NAP601   0.0000
    19 N1A         11.9300    20.8950     2.7620 N.ar         1 NAP601   0.0000
    20 C2A         12.7130    21.5580     1.8910 C.ar         1 NAP601   0.0000
    21 N3A         12.5190    22.8570     1.5310 N.ar         1 NAP601   0.0000
    22 C4A         11.5110    23.5600     2.0580 C.ar         1 NAP601   0.0000
    23 O3          11.7850    32.4520     1.7780 O.3          1 NAP601   0.0000
    24 PN          13.0990    33.3750     2.0140 P.3          1 NAP601   0.0000
    25 O1N         12.6930    34.8370     2.0670 O.co2        1 NAP601   0.0000
    26 O2N         14.1790    32.7750     1.1520 O.co2        1 NAP601  -1.0000
    27 O5D         13.5860    33.0530     3.5220 O.3          1 NAP601   0.0000
    28 C5D         14.4270    31.8730     3.6730 C.3          1 NAP601   0.0000
    29 C4D         14.7100    31.5550     5.1480 C.3          1 NAP601   0.0000
    30 O4D         15.1820    32.6890     5.8610 O.3          1 NAP601   0.0000
    31 C3D         13.4060    31.1260     5.8330 C.3          1 NAP601   0.0000
    32 O3D         13.6700    30.0020     6.6530 O.3          1 NAP601   0.0000
    33 C2D         12.9620    32.3410     6.6270 C.3          1 NAP601   0.0000
    34 O2D         12.1450    31.9850     7.7780 O.3          1 NAP601   0.0000
    35 C1D         14.2970    33.0690     6.9560 C.3          1 NAP601   0.0000
    36 N1N         14.0580    34.5280     7.0990 N.ar         1 NAP601   1.0000
    37 C2N         13.8190    35.3280     5.9960 C.ar         1 NAP601   0.0000
    38 C3N         13.5760    36.7120     6.0680 C.ar         1 NAP601   0.0000
    39 C7N         13.3280    37.5850     4.8060 C.2          1 NAP601   0.0000
    40 O7N         13.0530    38.7830     4.9170 O.2          1 NAP601   0.0000
    41 N7N         13.4220    37.1070     3.5570 N.am         1 NAP601   0.0000
    42 C4N         13.5450    37.2860     7.3470 C.ar         1 NAP601   0.0000
    43 C5N         13.7440    36.4680     8.4670 C.ar         1 NAP601   0.0000
    44 C6N         14.0220    35.0950     8.3270 C.ar         1 NAP601   0.0000
    45 P2B          9.6130    24.3860    -1.5100 P.3          1 NAP601   0.0000
    46 O1X          8.1920    24.9030    -1.3340 O.co2        1 NAP601   0.0000
    47 O2X          9.9430    23.8810    -2.9510 O.co2        1 NAP601  -1.0000
    48 O3X          9.9350    23.3600    -0.4590 O.co2        1 NAP601  -1.0000
    49 H5B1        11.2910    29.3326     1.9829 H            1 NAP601   0.0000
    50 H5B2        12.8766    29.2759     2.3693 H            1 NAP601   0.0000
    51 H4B         13.2886    27.8600     0.5001 H            1 NAP601   0.0000
    52 H3B         10.6317    28.4541    -0.2736 H            1 NAP601   0.0000
    53 H5          11.4002    28.1289    -2.2697 H            1 NAP601   0.0000
    54 H2B          9.8266    26.4502     0.3310 H            1 NAP601   0.0000
    55 H1B         12.4946    25.3443     0.5431 H            1 NAP601   0.0000
    56 H8A          9.4673    25.8512     2.7903 H            1 NAP601   0.0000
    57 H6A1        10.1676    19.9844     4.5596 H            1 NAP601   0.0000
    58 H6A2         9.2582    21.4516     4.7019 H            1 NAP601   0.0000
    59 H2A         13.4834    21.0674     1.4838 H            1 NAP601   0.0000
    60 H5D1        15.2958    32.0334     3.2046 H            1 NAP601   0.0000
    61 H5D2        13.9636    31.0906     3.2570 H            1 NAP601   0.0000
    62 H4D         15.3809    30.8160     5.2097 H            1 NAP601   0.0000
    63 H3D         12.7174    30.8950     5.1457 H            1 NAP601   0.0000
    64 H16         13.1130    29.2292     6.3487 H            1 NAP601   0.0000
    65 H2D         12.4213    32.9299     6.0264 H            1 NAP601   0.0000
    66 H18         11.8782    32.8154     8.2671 H            1 NAP601   0.0000
    67 H1D         14.6638    32.7105     7.8144 H            1 NAP601   0.0000
    68 H2N         13.8189    34.8969     5.0937 H            1 NAP601   0.0000
    69 H7N1        13.2528    37.7095     2.7770 H            1 NAP601   0.0000
    70 H7N2        13.6613    36.1480     3.4053 H            1 NAP601   0.0000
    71 H4N         13.3830    38.2665     7.4583 H            1 NAP601   0.0000
    72 H5N         13.6875    36.8666     9.3824 H            1 NAP601   0.0000
    73 H6N         14.1936    34.5365     9.1385 H            1 NAP601   0.0000
@<TRIPOS>BOND
     1    1    2      ar
     2    1    3      ar
     3    1    4       1
     4    1   23       1
     5    4    5       1
     6    5    6       1
     7    6    7       1
     8    6    8       1
     9    7   12       1
    10    8    9       1
    11    8   10       1
    12   10   11       1
    13   10   12       1
    14   11   45       1
    15   12   13       1
    16   13   14       1
    17   13   22       1
    18   14   15       2
    19   15   16       1
    20   16   17      ar
    21   16   22      ar
    22   17   18       1
    23   17   19      ar
    24   19   20      ar
    25   20   21      ar
    26   21   22      ar
    27   23   24       1
    28   24   25      ar
    29   24   26      ar
    30   24   27       1
    31   27   28       1
    32   28   29       1
    33   29   30       1
    34   29   31       1
    35   30   35       1
    36   31   32       1
    37   31   33       1
    38   33   34       1
    39   33   35       1
    40   35   36       1
    41   36   37      ar
    42   36   44      ar
    43   37   38      ar
    44   38   39       1
    45   38   42      ar
    46   39   40       2
    47   39   41      am
    48   42   43      ar
    49   43   44      ar
    50   45   46      ar
    51   45   47      ar
    52   45   48      ar
    53   43   72       1
    54    5   49       1
    55    5   50       1
    56    6   51       1
    57    8   52       1
    58    9   53       1
    59   10   54       1
    60   12   55       1
    61   14   56       1
    62   18   57       1
    63   18   58       1
    64   20   59       1
    65   44   73       1
    66   28   60       1
    67   28   61       1
    68   29   62       1
    69   31   63       1
    70   32   64       1
    71   33   65       1
    72   34   66       1
    73   35   67       1
    74   37   68       1
    75   41   69       1
    76   41   70       1
    77   42   71       1
@<TRIPOS>SUBSTRUCTURE
     1 NAP601      1 GROUP             4 A     NAP     0 **** NAP A 601
