@<TRIPOS>MOLECULE
3h8g_BES_4_ligand
   45    45     1     0     0
SMALL
NO_CHARGES


@<TRIPOS>ATOM
     1 N2         -28.8540   -19.8330    -9.3850 N.3          1 BES505   0.0000
     2 C1         -27.6290   -20.0240    -8.5920 C.3          1 BES505   0.0000
     3 C6         -27.2360   -18.6800    -7.9750 C.3          1 BES505   0.0000
     4 C7         -28.0820   -18.2220    -6.7920 C.ar         1 BES505   0.0000
     5 C8         -28.0100   -18.8860    -5.5550 C.ar         1 BES505   0.0000
     6 C12        -28.8860   -17.0840    -6.9620 C.ar         1 BES505   0.0000
     7 C9         -28.7830   -18.4090    -4.4700 C.ar         1 BES505   0.0000
     8 C11        -29.6260   -16.5960    -5.8850 C.ar         1 BES505   0.0000
     9 C10        -29.5510   -17.2660    -4.6770 C.ar         1 BES505   0.0000
    10 C2         -26.4880   -20.4510    -9.5280 C.3          1 BES505   0.0000
    11 O2         -26.9350   -21.4120   -10.5150 O.3          1 BES505   0.0000
    12 C3         -25.4970   -21.0910    -8.6360 C.2          1 BES505   0.0000
    13 O3         -25.8110   -22.1180    -8.0270 O.2          1 BES505   0.0000
    14 N1         -24.3090   -20.4640    -8.5290 N.am         1 BES505   0.0000
    15 C4         -23.2770   -21.0250    -7.6710 C.3          1 BES505   0.0000
    16 C13        -21.9760   -20.9640    -8.5150 C.3          1 BES505   0.0000
    17 C14        -20.7740   -21.7620    -7.9890 C.3          1 BES505   0.0000
    18 C15        -21.0330   -23.2760    -7.9800 C.3          1 BES505   0.0000
    19 C16        -19.5300   -21.3970    -8.7940 C.3          1 BES505   0.0000
    20 C5         -23.2250   -20.1600    -6.4620 C.2          1 BES505   0.0000
    21 O1         -23.2150   -18.9170    -6.6420 O.co2        1 BES505   0.0000
    22 O4         -23.2420   -20.7140    -5.3300 O.co2        1 BES505  -1.0000
    23 H1         -29.6539   -19.9858    -8.8047 H            1 BES505   0.0000
    24 H2         -27.7746   -20.7097    -7.8788 H            1 BES505   0.0000
    25 H3         -27.3034   -17.9830    -8.6889 H            1 BES505   0.0000
    26 H4         -26.2876   -18.7497    -7.6656 H            1 BES505   0.0000
    27 H5         -27.4198   -19.6855    -5.4432 H            1 BES505   0.0000
    28 H6         -28.9280   -16.6259    -7.8499 H            1 BES505   0.0000
    29 H7         -28.7779   -18.8762    -3.5859 H            1 BES505   0.0000
    30 H8         -30.1972   -15.7811    -5.9838 H            1 BES505   0.0000
    31 H9         -30.0795   -16.9084    -3.9070 H            1 BES505   0.0000
    32 H10        -26.0879   -19.6517    -9.9764 H            1 BES505   0.0000
    33 H11        -26.3936   -21.3092   -11.3494 H            1 BES505   0.0000
    34 H12        -24.1381   -19.6191    -9.0358 H            1 BES505   0.0000
    35 H13        -23.4956   -21.9688    -7.4232 H            1 BES505   0.0000
    36 H14        -21.6994   -20.0050    -8.5764 H            1 BES505   0.0000
    37 H15        -22.1914   -21.3080    -9.4289 H            1 BES505   0.0000
    38 H16        -20.6147   -21.4782    -7.0434 H            1 BES505   0.0000
    39 H17        -20.2249   -23.7504    -7.6309 H            1 BES505   0.0000
    40 H18        -21.8170   -23.4766    -7.3925 H            1 BES505   0.0000
    41 H19        -21.2258   -23.5867    -8.9107 H            1 BES505   0.0000
    42 H20        -18.7471   -21.9165    -8.4517 H            1 BES505   0.0000
    43 H21        -19.6803   -21.6170    -9.7579 H            1 BES505   0.0000
    44 H22        -19.3474   -20.4183    -8.7000 H            1 BES505   0.0000
    45 H23        -28.8763   -18.9001    -9.7445 H            1 BES505   0.0000
@<TRIPOS>BOND
     1    1    2       1
     2    2    3       1
     3    2   10       1
     4    3    4       1
     5    4    5      ar
     6    4    6      ar
     7    5    7      ar
     8    6    8      ar
     9    7    9      ar
    10    8    9      ar
    11   10   11       1
    12   10   12       1
    13   12   13       2
    14   12   14      am
    15   14   15       1
    16   15   16       1
    17   15   20       1
    18   16   17       1
    19   17   18       1
    20   17   19       1
    21   20   21      ar
    22   20   22      ar
    23    1   45       1
    24    1   23       1
    25    2   24       1
    26    3   25       1
    27    3   26       1
    28    5   27       1
    29    6   28       1
    30    7   29       1
    31    8   30       1
    32    9   31       1
    33   10   32       1
    34   11   33       1
    35   14   34       1
    36   15   35       1
    37   16   36       1
    38   16   37       1
    39   17   38       1
    40   18   39       1
    41   18   40       1
    42   18   41       1
    43   19   42       1
    44   19   43       1
    45   19   44       1
@<TRIPOS>SUBSTRUCTURE
     1 BES505      1 GROUP             4 D     BES     0 **** BES D 505
