@<TRIPOS>MOLECULE
4qtu_SAM_1_ligand
   50    52     1     0     0
SMALL
NO_CHARGES


@<TRIPOS>ATOM
     1 N           24.1980   -10.0050    37.5010 N.4          1 SAM301   1.0000
     2 CA          24.3830   -10.5520    38.8440 C.3          1 SAM301   0.0000
     3 C           25.8290   -10.9330    39.1650 C.2          1 SAM301   0.0000
     4 O           26.0760   -11.4100    40.2750 O.co2        1 SAM301   0.0000
     5 OXT         26.7660   -10.7870    38.3520 O.co2        1 SAM301  -1.0000
     6 CB          23.5090   -11.7770    39.0560 C.3          1 SAM301   0.0000
     7 CG          23.9170   -13.0090    38.2600 C.3          1 SAM301   0.0000
     8 SD          22.9610   -14.4510    38.8240 S.3          1 SAM301   1.0000
     9 CE          24.0410   -15.8440    38.4240 C.3          1 SAM301   0.0000
    10 C5'         21.6950   -14.5600    37.5080 C.3          1 SAM301   0.0000
    11 C4'         20.4540   -13.7100    37.8170 C.3          1 SAM301   0.0000
    12 O4'         19.4900   -13.6350    36.7560 O.3          1 SAM301   0.0000
    13 C3'         19.7250   -14.2200    39.0530 C.3          1 SAM301   0.0000
    14 O3'         19.7820   -13.1750    39.9980 O.3          1 SAM301   0.0000
    15 C2'         18.2930   -14.4540    38.5940 C.3          1 SAM301   0.0000
    16 O2'         17.3640   -14.0960    39.5930 O.3          1 SAM301   0.0000
    17 C1'         18.1810   -13.5770    37.3370 C.3          1 SAM301   0.0000
    18 N9          17.0590   -13.9260    36.4100 N.pl3        1 SAM301   0.0000
    19 C8          16.7250   -15.1710    35.9160 C.2          1 SAM301   0.0000
    20 N7          15.6380   -15.0570    35.1050 N.2          1 SAM301   0.0000
    21 C5          15.2530   -13.7630    35.0660 C.ar         1 SAM301   0.0000
    22 C6          14.2080   -13.1000    34.4100 C.ar         1 SAM301   0.0000
    23 N6          13.3280   -13.7270    33.6190 N.pl3        1 SAM301   0.0000
    24 N1          14.0870   -11.7500    34.5690 N.ar         1 SAM301   0.0000
    25 C2          14.9580   -11.0570    35.3820 C.ar         1 SAM301   0.0000
    26 N3          15.9780   -11.7170    36.0250 N.ar         1 SAM301   0.0000
    27 C4          16.1360   -13.0500    35.8790 C.ar         1 SAM301   0.0000
    28 H1          23.2335    -9.7799    37.3627 H            1 SAM301   0.0000
    29 H2          24.7512    -9.1783    37.3987 H            1 SAM301   0.0000
    30 HA          24.0971    -9.8544    39.5009 H            1 SAM301   0.0000
    31 HB1         22.5730   -11.5378    38.7979 H            1 SAM301   0.0000
    32 HB2         23.5370   -12.0129    40.0274 H            1 SAM301   0.0000
    33 HG1         24.8923   -13.1837    38.3952 H            1 SAM301   0.0000
    34 HG2         23.7381   -12.8512    37.2889 H            1 SAM301   0.0000
    35 HE1         23.5994   -16.6979    38.6993 H            1 SAM301   0.0000
    36 HE2         24.2132   -15.8602    37.4391 H            1 SAM301   0.0000
    37 HE3         24.9080   -15.7446    38.9124 H            1 SAM301   0.0000
    38 H5'1        21.4141   -15.5148    37.4110 H            1 SAM301   0.0000
    39 H5'2        22.0964   -14.2417    36.6492 H            1 SAM301   0.0000
    40 H4'         20.7646   -12.7794    38.0107 H            1 SAM301   0.0000
    41 H3'         20.1403   -15.0585    39.4057 H            1 SAM301   0.0000
    42 H15         19.3341   -12.3628    39.6243 H            1 SAM301   0.0000
    43 H2'         18.1701   -15.4153    38.3473 H            1 SAM301   0.0000
    44 H17         17.4704   -13.1268    39.8152 H            1 SAM301   0.0000
    45 H1'         18.0327   -12.6365    37.6427 H            1 SAM301   0.0000
    46 H19         17.2063   -16.0231    36.1218 H            1 SAM301   0.0000
    47 H20         12.5989   -13.2083    33.1726 H            1 SAM301   0.0000
    48 H21         13.4000   -14.7139    33.4747 H            1 SAM301   0.0000
    49 H22         14.8475   -10.0707    35.5045 H            1 SAM301   0.0000
    50 H23         24.4827   -10.6826    36.8229 H            1 SAM301   0.0000
@<TRIPOS>BOND
     1    1    2       1
     2    2    3       1
     3    2    6       1
     4    3    4      ar
     5    3    5      ar
     6    6    7       1
     7    7    8       1
     8    8    9       1
     9    8   10       1
    10   10   11       1
    11   11   12       1
    12   11   13       1
    13   12   17       1
    14   13   14       1
    15   13   15       1
    16   15   16       1
    17   15   17       1
    18   17   18       1
    19   18   19       1
    20   18   27       1
    21   19   20       2
    22   20   21       1
    23   21   22      ar
    24   21   27      ar
    25   22   23       1
    26   22   24      ar
    27   24   25      ar
    28   25   26      ar
    29   26   27      ar
    30    1   28       1
    31    1   29       1
    32    2   30       1
    33    1   50       1
    34    6   31       1
    35    6   32       1
    36    7   33       1
    37    7   34       1
    38    9   35       1
    39    9   36       1
    40    9   37       1
    41   10   38       1
    42   10   39       1
    43   11   40       1
    44   13   41       1
    45   14   42       1
    46   15   43       1
    47   16   44       1
    48   17   45       1
    49   19   46       1
    50   23   47       1
    51   23   48       1
    52   25   49       1
@<TRIPOS>SUBSTRUCTURE
     1 SAM301      1 GROUP             4 B     SAM     0 **** SAM B 301
