@<TRIPOS>MOLECULE
3vd7_GTZ_3_ligand
   24    25     1     0     0
SMALL
NO_CHARGES


@<TRIPOS>ATOM
     1 C1         123.8960     9.3500    33.2100 C.2          1 GTZ2001   0.0000
     2 C2         122.8140     9.8150    34.1080 C.3          1 GTZ2001   0.0000
     3 C3         123.0120    11.2800    34.5610 C.3          1 GTZ2001   0.0000
     4 C4         124.4510    11.8070    34.4800 C.3          1 GTZ2001   0.0000
     5 C5         125.0950    11.5770    33.1060 C.3          1 GTZ2001   0.0000
     6 C6         126.5570    12.0220    33.0600 C.3          1 GTZ2001   0.0000
     7 N1         124.0810     8.1130    32.6820 N.2          1 GTZ2001   0.0000
     8 O2         121.5700     9.6710    33.4160 O.3          1 GTZ2001   0.0000
     9 O3         122.5280    11.4600    35.9070 O.3          1 GTZ2001   0.0000
    10 O4         125.2300    11.1820    35.5050 O.3          1 GTZ2001   0.0000
    11 N5         124.8810    10.1350    32.7880 N.pl3        1 GTZ2001   0.0000
    12 O6         126.5790    13.4570    33.0820 O.3          1 GTZ2001   0.0000
    13 NA         125.7720     9.4480    31.9490 N.2          1 GTZ2001   0.0000
    14 NB         125.2480     8.1410    31.8880 N.2          1 GTZ2001   0.0000
    15 H1         122.7981     9.2295    34.9186 H            1 GTZ2001   0.0000
    16 H2         122.4512    11.8540    33.9643 H            1 GTZ2001   0.0000
    17 H3         124.4339    12.7912    34.6565 H            1 GTZ2001   0.0000
    18 H4         124.5881    12.1180    32.4349 H            1 GTZ2001   0.0000
    19 H5         126.9882    11.6879    32.2219 H            1 GTZ2001   0.0000
    20 H6         127.0474    11.6619    33.8536 H            1 GTZ2001   0.0000
    21 H7         120.9295    10.3706    33.7327 H            1 GTZ2001   0.0000
    22 H8         121.5629    11.7209    35.8821 H            1 GTZ2001   0.0000
    23 H9         125.9578    11.8030    35.7959 H            1 GTZ2001   0.0000
    24 H10        126.5499    13.8052    32.1450 H            1 GTZ2001   0.0000
@<TRIPOS>BOND
     1    1    2       1
     2    1    7       2
     3    1   11       1
     4    2    3       1
     5    2    8       1
     6    3    4       1
     7    3    9       1
     8    4    5       1
     9    4   10       1
    10    5    6       1
    11    5   11       1
    12    6   12       1
    13    7   14       1
    14   11   13       1
    15   13   14       2
    16    2   15       1
    17    3   16       1
    18    4   17       1
    19    5   18       1
    20    6   19       1
    21    6   20       1
    22    8   21       1
    23    9   22       1
    24   10   23       1
    25   12   24       1
@<TRIPOS>SUBSTRUCTURE
     1 GTZ2001     1 GROUP             4 C     GTZ     0 **** GTZ C2001
