@<TRIPOS>MOLECULE
4ez6_DG3_1_ligand
   42    44     1     0     0
SMALL
NO_CHARGES


@<TRIPOS>ATOM
     1 PG         131.4550   -25.8810    48.3950 P.3          1 DG3901   0.0000
     2 O1G        130.8740   -24.6620    49.1280 O.co2        1 DG3901   0.0000
     3 O2G        130.7730   -27.1010    48.8880 O.co2        1 DG3901  -1.0000
     4 O3G        132.9060   -25.9820    48.6480 O.co2        1 DG3901  -1.0000
     5 O3B        131.1820   -25.7290    46.8460 O.3          1 DG3901   0.0000
     6 PB         132.3580   -25.2170    45.8520 P.3          1 DG3901   0.0000
     7 O1B        133.2200   -24.1840    46.6020 O.co2        1 DG3901   0.0000
     8 O2B        133.2230   -26.3820    45.4700 O.co2        1 DG3901  -1.0000
     9 O3A        131.6910   -24.5600    44.5910 O.3          1 DG3901   0.0000
    10 PA         130.8500   -25.2910    43.4800 P.3          1 DG3901   0.0000
    11 O1A        131.5110   -26.5880    43.1470 O.co2        1 DG3901   0.0000
    12 O2A        130.9860   -24.3730    42.2320 O.co2        1 DG3901  -1.0000
    13 O5'        129.3080   -25.4460    43.8910 O.3          1 DG3901   0.0000
    14 C5'        128.1960   -25.3750    43.0050 C.3          1 DG3901   0.0000
    15 C4'        126.9000   -24.8200    43.4330 C.3          1 DG3901   0.0000
    16 O4'        126.5400   -23.7130    42.6250 O.3          1 DG3901   0.0000
    17 C3'        125.7730   -25.7950    43.2600 C.3          1 DG3901   0.0000
    18 C2'        124.5980   -25.0030    42.8440 C.3          1 DG3901   0.0000
    19 C1'        125.1350   -23.7830    42.2000 C.3          1 DG3901   0.0000
    20 N9         124.9750   -23.7090    40.7350 N.pl3        1 DG3901   0.0000
    21 C8         124.2090   -22.8410    40.0640 C.2          1 DG3901   0.0000
    22 N7         124.3340   -23.0490    38.7360 N.2          1 DG3901   0.0000
    23 C5         125.2030   -24.0730    38.5420 C.2          1 DG3901   0.0000
    24 C6         125.7370   -24.7400    37.4330 C.2          1 DG3901   0.0000
    25 O6         125.3870   -24.4180    36.1220 O.2          1 DG3901   0.0000
    26 N1         126.5900   -25.7770    37.6310 N.pl3        1 DG3901   0.0000
    27 C2         126.9560   -26.1080    38.8830 C.2          1 DG3901   0.0000
    28 N2         127.9040   -27.1910    39.0740 N.pl3        1 DG3901   0.0000
    29 N3         126.4610   -25.4990    39.9610 N.2          1 DG3901   0.0000
    30 C4         125.5970   -24.4860    39.8220 C.2          1 DG3901   0.0000
    31 H5'1       128.0155   -26.3115    42.7044 H            1 DG3901   0.0000
    32 H5'2       128.4932   -24.8257    42.2240 H            1 DG3901   0.0000
    33 H4'        126.9550   -24.5349    44.3899 H            1 DG3901   0.0000
    34 H3'1       125.5860   -26.2644    44.1230 H            1 DG3901   0.0000
    35 H3'2       126.0028   -26.4684    42.5573 H            1 DG3901   0.0000
    36 H2'1       124.0432   -24.7603    43.6398 H            1 DG3901   0.0000
    37 H2'2       124.0413   -25.5219    42.1953 H            1 DG3901   0.0000
    38 H1'        124.6596   -22.9975    42.5963 H            1 DG3901   0.0000
    39 H9         123.6300   -22.1421    40.4838 H            1 DG3901   0.0000
    40 H10        126.9446   -26.2923    36.8508 H            1 DG3901   0.0000
    41 H11        128.1873   -27.4505    39.9973 H            1 DG3901   0.0000
    42 H12        128.2737   -27.6774    38.2823 H            1 DG3901   0.0000
@<TRIPOS>BOND
     1    1    2      ar
     2    1    3      ar
     3    1    4      ar
     4    1    5       1
     5    5    6       1
     6    6    7      ar
     7    6    8      ar
     8    6    9       1
     9    9   10       1
    10   10   11      ar
    11   10   12      ar
    12   10   13       1
    13   13   14       1
    14   14   15       1
    15   15   16       1
    16   15   17       1
    17   16   19       1
    18   17   18       1
    19   18   19       1
    20   19   20       1
    21   20   21       1
    22   20   30       1
    23   21   22       2
    24   22   23       1
    25   23   24       1
    26   23   30       2
    27   24   25       2
    28   24   26       1
    29   26   27       1
    30   27   28       1
    31   27   29       2
    32   29   30       1
    33   28   42       1
    34   28   41       1
    35   26   40       1
    36   21   39       1
    37   14   31       1
    38   14   32       1
    39   15   33       1
    40   17   34       1
    41   17   35       1
    42   18   36       1
    43   18   37       1
    44   19   38       1
@<TRIPOS>SUBSTRUCTURE
     1 DG3901      1 GROUP             4 A     DG3     0 **** DG3 A 901
