@<TRIPOS>MOLECULE
./coach420/2fsg/ligand.pdb
 31 33 0 0 0
SMALL
GASTEIGER

@<TRIPOS>ATOM
      1  PG        50.4950   14.5660   49.2380 P.3   900  ATP900      0.5373
      2  O1G       51.9220   14.4740   49.7710 O.3   900  ATP900     -0.1143
      3  O2G       50.2620   14.3220   47.7160 O.2   900  ATP900     -0.2221
      4  O3G       49.4730   13.7050   49.9470 O.3   900  ATP900     -0.1143
      5  PB        48.6820   16.7740   49.2520 P.3   900  ATP900      0.2277
      6  O1B       47.6180   15.7840   48.8210 O.2   900  ATP900     -0.5168
      7  O2B       48.2230   17.7500   50.2190 O.3   900  ATP900     -0.4368
      8  O3B       50.1400   16.1360   49.6020 O.3   900  ATP900     -0.2258
      9  PA        50.3880   18.4560   47.5790 P.3   900  ATP900      0.2189
     10  O1A       51.0970   17.8330   46.3840 O.2   900  ATP900     -0.5170
     11  O2A       51.1990   18.8560   48.7940 O.3   900  ATP900     -0.4371
     12  O3A       49.1530   17.4740   47.8660 O.3   900  ATP900     -0.2700
     13  O5'       49.3250   19.6930   47.3530 O.3   900  ATP900     -0.3112
     14  C5'       48.1750   19.8880   46.5180 C.3   900  ATP900      0.1813
     15  C4'       48.5400   21.0410   45.5950 C.3   900  ATP900      0.1801
     16  O4'       48.4950   22.3370   46.2040 O.3   900  ATP900     -0.3306
     17  C3'       49.9800   20.9690   45.0280 C.3   900  ATP900      0.2161
     18  O3'       49.8870   20.9490   43.5760 O.3   900  ATP900     -0.2175
     19  C2'       50.7350   22.1650   45.6260 C.3   900  ATP900      0.2337
     20  O2'       51.7930   22.7720   44.8680 O.3   900  ATP900     -0.2155
     21  C1'       49.6160   23.1470   45.8510 C.3   900  ATP900      0.2409
     22  N9        49.8040   24.0980   46.9890 N.ar  900  ATP900     -0.2693
     23  C8        50.0010   23.7770   48.2910 C.ar  900  ATP900      0.1816
     24  N7        50.0540   24.9120   49.0500 N.ar  900  ATP900     -0.2193
     25  C5        49.9210   25.9670   48.2480 C.ar  900  ATP900      0.1518
     26  C6        49.9550   27.4330   48.4080 C.ar  900  ATP900      0.1919
     27  N6        50.1320   27.8890   49.6400 N.pl3 900  ATP900     -0.1054
     28  N1        49.8020   28.2200   47.3130 N.ar  900  ATP900     -0.2040
     29  C2        49.6330   27.7020   46.0770 C.ar  900  ATP900      0.2016
     30  N3        49.6020   26.3600   45.8650 N.ar  900  ATP900     -0.2048
     31  C4        49.7640   25.4550   46.8710 C.ar  900  ATP900      0.1692
@<TRIPOS>BOND
     1     1     3    2
     2     1     8    1
     3     1     2    1
     4     1     4    1
     5     5    12    1
     6     5     6    2
     7     5     8    1
     8     5     7    1
     9     9    10    2
    10     9    13    1
    11     9    12    1
    12     9    11    1
    13    13    14    1
    14    14    15    1
    15    15    17    1
    16    15    16    1
    17    16    21    1
    18    17    18    1
    19    17    19    1
    20    19    20    1
    21    19    21    1
    22    21    22    1
    23    22    31   ar
    24    22    23   ar
    25    23    24   ar
    26    24    25   ar
    27    25    31   ar
    28    25    26   ar
    29    26    28   ar
    30    26    27    1
    31    28    29   ar
    32    29    30   ar
    33    30    31   ar
