@<TRIPOS>MOLECULE
4ijr_NDP_2_ligand
   73    77     1     0     0
SMALL
NO_CHARGES


@<TRIPOS>ATOM
     1 PA          21.5670   -35.8080    30.4280 P.3          1 NDP401   0.0000
     2 O1A         22.6810   -35.9820    29.4820 O.co2        1 NDP401   0.0000
     3 O2A         20.8510   -34.5550    30.1390 O.co2        1 NDP401  -1.0000
     4 O5B         22.2240   -35.6950    31.8970 O.3          1 NDP401   0.0000
     5 C5B         21.3990   -35.4530    33.0130 C.3          1 NDP401   0.0000
     6 C4B         22.1650   -35.5520    34.3240 C.3          1 NDP401   0.0000
     7 O4B         23.2570   -34.6550    34.3460 O.3          1 NDP401   0.0000
     8 C3B         21.2370   -35.1550    35.4670 C.3          1 NDP401   0.0000
     9 O3B         21.2250   -36.1730    36.4470 O.3          1 NDP401   0.0000
    10 C2B         21.8020   -33.8540    36.0050 C.3          1 NDP401   0.0000
    11 O2B         21.6600   -33.7450    37.4040 O.3          1 NDP401   0.0000
    12 C1B         23.2560   -33.9630    35.5780 C.3          1 NDP401   0.0000
    13 N9A         23.9050   -32.6530    35.4440 N.pl3        1 NDP401   0.0000
    14 C8A         23.4520   -31.5780    34.7230 C.2          1 NDP401   0.0000
    15 N7A         24.3510   -30.5820    34.8670 N.2          1 NDP401   0.0000
    16 C5A         25.3660   -30.9960    35.6630 C.ar         1 NDP401   0.0000
    17 C6A         26.5300   -30.3740    36.1250 C.ar         1 NDP401   0.0000
    18 N6A         26.8290   -29.1300    35.7500 N.pl3        1 NDP401   0.0000
    19 N1A         27.3960   -31.0720    36.9500 N.ar         1 NDP401   0.0000
    20 C2A         27.1130   -32.3750    37.3120 C.ar         1 NDP401   0.0000
    21 N3A         25.9590   -32.9810    36.8460 N.ar         1 NDP401   0.0000
    22 C4A         25.0980   -32.3040    36.0360 C.ar         1 NDP401   0.0000
    23 O3          20.6990   -37.1790    30.5170 O.3          1 NDP401   0.0000
    24 PN          19.1490   -37.5220    30.1690 P.3          1 NDP401   0.0000
    25 O1N         18.3090   -36.9260    31.2210 O.co2        1 NDP401   0.0000
    26 O2N         19.0490   -38.9860    29.9160 O.co2        1 NDP401  -1.0000
    27 O5D         18.8230   -36.8230    28.7420 O.3          1 NDP401   0.0000
    28 C5D         18.1370   -35.5970    28.6180 C.3          1 NDP401   0.0000
    29 C4D         16.6580   -35.7860    28.2420 C.3          1 NDP401   0.0000
    30 O4D         16.5030   -36.4110    26.9780 O.3          1 NDP401   0.0000
    31 C3D         15.8190   -36.6490    29.1810 C.3          1 NDP401   0.0000
    32 O3D         15.4440   -36.0190    30.3760 O.3          1 NDP401   0.0000
    33 C2D         14.6430   -37.0320    28.2950 C.3          1 NDP401   0.0000
    34 O2D         13.6960   -35.9790    28.1820 O.3          1 NDP401   0.0000
    35 C1D         15.3430   -37.2340    26.9540 C.3          1 NDP401   0.0000
    36 N1N         15.7030   -38.6660    26.7470 N.ar         1 NDP401   1.0000
    37 C2N         15.0460   -39.3440    25.7630 C.ar         1 NDP401   0.0000
    38 C3N         15.1100   -40.7320    25.6270 C.ar         1 NDP401   0.0000
    39 C7N         14.3590   -41.3820    24.4970 C.2          1 NDP401   0.0000
    40 O7N         14.2380   -42.7840    24.4690 O.2          1 NDP401   0.0000
    41 N7N         13.8540   -40.6110    23.5230 N.am         1 NDP401   0.0000
    42 C4N         15.9300   -41.5800    26.5770 C.ar         1 NDP401   0.0000
    43 C5N         16.6250   -40.7440    27.6250 C.ar         1 NDP401   0.0000
    44 C6N         16.4830   -39.3560    27.6540 C.ar         1 NDP401   0.0000
    45 P2B         21.1850   -32.3980    38.1550 P.3          1 NDP401   0.0000
    46 O1X         19.6830   -32.3100    38.0540 O.co2        1 NDP401   0.0000
    47 O2X         21.5060   -32.5050    39.6330 O.co2        1 NDP401  -1.0000
    48 O3X         21.8820   -31.1780    37.6120 O.co2        1 NDP401  -1.0000
    49 H5B1        20.6601   -36.1267    33.0197 H            1 NDP401   0.0000
    50 H5B2        21.0118   -34.5344    32.9345 H            1 NDP401   0.0000
    51 H4B         22.4902   -36.4880    34.4587 H            1 NDP401   0.0000
    52 H3B         20.3115   -35.0064    35.1186 H            1 NDP401   0.0000
    53 H5          21.5438   -35.8005    37.3185 H            1 NDP401   0.0000
    54 H2B         21.3669   -33.0756    35.5524 H            1 NDP401   0.0000
    55 H1B         23.7539   -34.5046    36.2553 H            1 NDP401   0.0000
    56 H8A         22.6083   -31.5392    34.1876 H            1 NDP401   0.0000
    57 H6A1        27.6638   -28.6936    36.0857 H            1 NDP401   0.0000
    58 H6A2        26.2185   -28.6334    35.1330 H            1 NDP401   0.0000
    59 H2A         27.7390   -32.8780    37.9079 H            1 NDP401   0.0000
    60 H5D1        18.5814   -35.0512    27.9077 H            1 NDP401   0.0000
    61 H5D2        18.1866   -35.1119    29.4911 H            1 NDP401   0.0000
    62 H4D         16.2342   -34.8816    28.1930 H            1 NDP401   0.0000
    63 H3D         16.3354   -37.4760    29.4032 H            1 NDP401   0.0000
    64 H16         16.1415   -36.1845    31.0732 H            1 NDP401   0.0000
    65 H2D         14.2108   -37.8770    28.6101 H            1 NDP401   0.0000
    66 H18         13.2428   -36.0323    27.2922 H            1 NDP401   0.0000
    67 H1D         14.7387   -36.9339    26.2159 H            1 NDP401   0.0000
    68 H2N         14.4944   -38.8244    25.1105 H            1 NDP401   0.0000
    69 H7N1        13.3523   -41.0277    22.7649 H            1 NDP401   0.0000
    70 H7N2        13.9791   -39.6194    23.5547 H            1 NDP401   0.0000
    71 H4N         16.0026   -42.5756    26.5173 H            1 NDP401   0.0000
    72 H5N         17.1975   -41.1932    28.3109 H            1 NDP401   0.0000
    73 H6N         16.9662   -38.8395    28.3610 H            1 NDP401   0.0000
@<TRIPOS>BOND
     1    1    2      ar
     2    1    3      ar
     3    1    4       1
     4    1   23       1
     5    4    5       1
     6    5    6       1
     7    6    7       1
     8    6    8       1
     9    7   12       1
    10    8    9       1
    11    8   10       1
    12   10   11       1
    13   10   12       1
    14   11   45       1
    15   12   13       1
    16   13   14       1
    17   13   22       1
    18   14   15       2
    19   15   16       1
    20   16   17      ar
    21   16   22      ar
    22   17   18       1
    23   17   19      ar
    24   19   20      ar
    25   20   21      ar
    26   21   22      ar
    27   23   24       1
    28   24   25      ar
    29   24   26      ar
    30   24   27       1
    31   27   28       1
    32   28   29       1
    33   29   30       1
    34   29   31       1
    35   30   35       1
    36   31   32       1
    37   31   33       1
    38   33   34       1
    39   33   35       1
    40   35   36       1
    41   36   37      ar
    42   36   44      ar
    43   37   38      ar
    44   38   39       1
    45   38   42      ar
    46   39   40       2
    47   39   41      am
    48   42   43      ar
    49   43   44      ar
    50   45   46      ar
    51   45   47      ar
    52   45   48      ar
    53   43   72       1
    54    5   49       1
    55    5   50       1
    56    6   51       1
    57    8   52       1
    58    9   53       1
    59   10   54       1
    60   12   55       1
    61   14   56       1
    62   18   57       1
    63   18   58       1
    64   20   59       1
    65   44   73       1
    66   28   60       1
    67   28   61       1
    68   29   62       1
    69   31   63       1
    70   32   64       1
    71   33   65       1
    72   34   66       1
    73   35   67       1
    74   37   68       1
    75   41   69       1
    76   41   70       1
    77   42   71       1
@<TRIPOS>SUBSTRUCTURE
     1 NDP401      1 GROUP             4 C     NDP     0 **** NDP C 401
