@<TRIPOS>MOLECULE
1esm_COA_4_ligand
   80    82     1     0     0
SMALL
NO_CHARGES


@<TRIPOS>ATOM
     1 N1A         33.7710     4.4810    39.3510 N.ar         1 COA403   0.0000
     2 C2A         34.0750     3.3060    38.7690 C.ar         1 COA403   0.0000
     3 N3A         34.7190     3.1160    37.6030 N.ar         1 COA403   0.0000
     4 C4A         35.0760     4.3130    36.9990 C.ar         1 COA403   0.0000
     5 C5A         34.8260     5.5840    37.4800 C.ar         1 COA403   0.0000
     6 C6A         34.1470     5.6310    38.7090 C.ar         1 COA403   0.0000
     7 N6A         33.8530     6.7750    39.2690 N.pl3        1 COA403   0.0000
     8 N7A         35.3230     6.5620    36.6150 N.2          1 COA403   0.0000
     9 C8A         35.8480     5.8500    35.6440 C.2          1 COA403   0.0000
    10 N9A         35.7380     4.4820    35.8060 N.pl3        1 COA403   0.0000
    11 C1B         36.2000     3.3560    34.9470 C.3          1 COA403   0.0000
    12 C2B         35.5770     3.0560    33.5810 C.3          1 COA403   0.0000
    13 O2B         34.5440     2.0870    33.7530 O.3          1 COA403   0.0000
    14 C3B         36.7740     2.6090    32.7310 C.3          1 COA403   0.0000
    15 O3B         37.0330     1.1590    32.6830 O.3          1 COA403   0.0000
    16 P3B         36.2560     0.0240    31.8440 P.3          1 COA403   0.0000
    17 O7A         34.9360     0.6290    31.5070 O.co2        1 COA403   0.0000
    18 O8A         36.1810    -1.0630    32.8360 O.co2        1 COA403  -1.0000
    19 O9A         37.2360    -0.2020    30.7830 O.co2        1 COA403  -1.0000
    20 C4B         37.9670     3.1780    33.4380 C.3          1 COA403   0.0000
    21 O4B         37.6030     3.5160    34.7560 O.3          1 COA403   0.0000
    22 C5B         38.5580     4.4510    32.7490 C.3          1 COA403   0.0000
    23 O5B         37.6480     5.5690    32.7720 O.3          1 COA403   0.0000
    24 P1A         38.0480     6.8790    31.9570 P.3          1 COA403   0.0000
    25 O1A         37.1710     8.0100    32.3250 O.co2        1 COA403   0.0000
    26 O2A         38.0340     6.5260    30.5130 O.co2        1 COA403  -1.0000
    27 O3A         39.5320     7.1980    32.2340 O.3          1 COA403   0.0000
    28 P2A         40.0960     8.5660    32.7660 P.3          1 COA403   0.0000
    29 O4A         39.5970     9.5660    31.7870 O.co2        1 COA403   0.0000
    30 O5A         41.5810     8.3870    32.7510 O.co2        1 COA403  -1.0000
    31 O6A         39.6500     9.1370    34.2140 O.3          1 COA403   0.0000
    32 CBP         39.2560     9.4290    36.6190 C.3          1 COA403   0.0000
    33 CCP         39.6790     8.4640    35.4880 C.3          1 COA403   0.0000
    34 CDP         40.1660    10.6050    36.4580 C.3          1 COA403   0.0000
    35 CEP         39.6630     8.8200    37.9400 C.3          1 COA403   0.0000
    36 CAP         37.7120     9.8730    36.5820 C.3          1 COA403   0.0000
    37 OAP         36.9700     8.7270    37.0090 O.3          1 COA403   0.0000
    38 C9P         37.5620    10.8760    37.8130 C.2          1 COA403   0.0000
    39 O9P         37.6590    10.9190    38.8090 O.2          1 COA403   0.0000
    40 N8P         37.1180    12.2410    37.1020 N.am         1 COA403   0.0000
    41 C7P         36.8720    13.5300    37.8790 C.3          1 COA403   0.0000
    42 C6P         35.3460    13.8500    38.0860 C.3          1 COA403   0.0000
    43 C5P         34.4820    12.6140    38.0420 C.2          1 COA403   0.0000
    44 O5P         33.8290    12.2950    37.0760 O.2          1 COA403   0.0000
    45 N4P         34.5960    11.9700    39.1820 N.am         1 COA403   0.0000
    46 C3P         33.9570    10.6820    39.5680 C.3          1 COA403   0.0000
    47 C2P         32.4930    11.0260    39.7380 C.3          1 COA403   0.0000
    48 S1P         31.5050     9.5820    40.1810 S.3          1 COA403   0.0000
    49 H2A         33.7902     2.4816    39.2582 H            1 COA403   0.0000
    50 H6A1        34.1146     7.6314    38.8239 H            1 COA403   0.0000
    51 H6A2        33.3665     6.7937    40.1425 H            1 COA403   0.0000
    52 H8A         36.2923     6.2652    34.8501 H            1 COA403   0.0000
    53 H1B         36.0867     2.5256    35.4926 H            1 COA403   0.0000
    54 H2B         35.1892     3.8946    33.1984 H            1 COA403   0.0000
    55 H7          34.4650     1.5333    32.9241 H            1 COA403   0.0000
    56 H3B         36.7048     2.9826    31.8060 H            1 COA403   0.0000
    57 H4B         38.6791     2.4769    33.4747 H            1 COA403   0.0000
    58 H5B1        38.7698     4.2304    31.7969 H            1 COA403   0.0000
    59 H5B2        39.3976     4.7120    33.2254 H            1 COA403   0.0000
    60 HCP1        40.6065     8.1352    35.6656 H            1 COA403   0.0000
    61 HCP2        39.0489     7.6878    35.4647 H            1 COA403   0.0000
    62 HDP1        39.9573    11.2865    37.1595 H            1 COA403   0.0000
    63 HDP2        41.1157    10.3072    36.5546 H            1 COA403   0.0000
    64 HDP3        40.0334    11.0076    35.5523 H            1 COA403   0.0000
    65 HEP1        39.3969     9.4316    38.6851 H            1 COA403   0.0000
    66 HEP2        39.2074     7.9372    38.0545 H            1 COA403   0.0000
    67 HEP3        40.6541     8.6881    37.9549 H            1 COA403   0.0000
    68 HAP         37.4145    10.2515    35.7055 H            1 COA403   0.0000
    69 H21         35.9935     8.9424    37.0070 H            1 COA403   0.0000
    70 H8P         36.9973    12.2482    36.1093 H            1 COA403   0.0000
    71 H7P1        37.2900    14.2875    37.3776 H            1 COA403   0.0000
    72 H7P2        37.3035    13.4464    38.7772 H            1 COA403   0.0000
    73 H6P1        35.0489    14.4742    37.3634 H            1 COA403   0.0000
    74 H6P2        35.2292    14.2907    38.9760 H            1 COA403   0.0000
    75 H4P         35.1814    12.3957    39.8720 H            1 COA403   0.0000
    76 H3P1        34.3418    10.3385    40.4247 H            1 COA403   0.0000
    77 H3P2        34.0787     9.9971    38.8496 H            1 COA403   0.0000
    78 H2P1        32.1478    11.4016    38.8779 H            1 COA403   0.0000
    79 H2P2        32.4044    11.7116    40.4606 H            1 COA403   0.0000
    80 H1P         30.5476     9.8519    40.2834 H            1 COA403   0.0000
@<TRIPOS>BOND
     1    1    2      ar
     2    1    6      ar
     3    2    3      ar
     4    3    4      ar
     5    4    5      ar
     6    4   10       1
     7    5    6      ar
     8    5    8       1
     9    6    7       1
    10    8    9       2
    11    9   10       1
    12   10   11       1
    13   11   12       1
    14   11   21       1
    15   12   13       1
    16   12   14       1
    17   14   15       1
    18   14   20       1
    19   15   16       1
    20   16   17      ar
    21   16   18      ar
    22   16   19      ar
    23   20   21       1
    24   20   22       1
    25   22   23       1
    26   23   24       1
    27   24   25      ar
    28   24   26      ar
    29   24   27       1
    30   27   28       1
    31   28   29      ar
    32   28   30      ar
    33   28   31       1
    34   31   33       1
    35   32   33       1
    36   32   34       1
    37   32   35       1
    38   32   36       1
    39   36   37       1
    40   36   38       1
    41   38   39       2
    42   38   40      am
    43   40   41       1
    44   41   42       1
    45   42   43       1
    46   43   44       2
    47   43   45      am
    48   45   46       1
    49   46   47       1
    50   47   48       1
    51    2   49       1
    52    7   50       1
    53    7   51       1
    54    9   52       1
    55   11   53       1
    56   12   54       1
    57   13   55       1
    58   14   56       1
    59   48   80       1
    60   47   79       1
    61   20   57       1
    62   22   58       1
    63   22   59       1
    64   47   78       1
    65   46   77       1
    66   33   60       1
    67   33   61       1
    68   34   62       1
    69   34   63       1
    70   34   64       1
    71   35   65       1
    72   35   66       1
    73   35   67       1
    74   36   68       1
    75   37   69       1
    76   40   70       1
    77   41   71       1
    78   41   72       1
    79   42   73       1
    80   42   74       1
    81   45   75       1
    82   46   76       1
@<TRIPOS>SUBSTRUCTURE
     1 COA403      1 GROUP             4 D     COA     0 **** COA D 403
