@<TRIPOS>MOLECULE
./coach420/1bzy/ligand.pdb
 32 30 0 0 0
SMALL
GASTEIGER

@<TRIPOS>ATOM
      1  P         12.3300   82.9070   41.2670 P.3   300  IMU300      0.5326
      2  C2         4.9500   84.0600   46.5720 C.2   300  IMU300      0.4850
      3  O1P       13.4450   82.9870   42.2380 O.3   300  IMU300     -0.1145
      4  O2P       12.6420   83.4750   39.9510 O.2   300  IMU300     -0.2224
      5  O3P       11.8310   81.5140   41.1860 O.3   300  IMU300     -0.1145
      6  O5'       11.1220   83.6140   41.8860 O.3   300  IMU300     -0.2687
      7  C5'       11.1220   84.7260   42.7530 C.3   300  IMU300      0.1737
      8  C4'       10.0300   85.6060   42.2980 C.3   300  IMU300      0.1362
      9  N4'        8.8020   84.8890   42.2260 N.3   300  IMU300     -0.2084
     10  C3'        9.8970   86.7410   43.2480 C.3   300  IMU300      0.2022
     11  O3'        9.8970   87.9360   42.4840 O.3   300  IMU300     -0.2188
     12  C2'        8.5990   86.4460   43.9420 C.3   300  IMU300      0.2036
     13  O2'        7.7480   87.5890   43.9850 O.3   300  IMU300     -0.2185
     14  C1'        7.8720   85.2670   43.2330 C.3   300  IMU300      0.1323
     15  C9         7.7630   84.0950   44.2180 C.2   300  IMU300      0.0512
     16  C8         8.6610   83.0150   44.3300 C.2   300  IMU300      0.0993
     17  N7         8.3770   82.1430   45.2530 N.2   300  IMU300     -0.2351
     18  C5         7.2110   82.6350   45.8400 C.2   300  IMU300      0.1877
     19  C6         6.4410   82.0940   46.9260 C.2   300  IMU300      0.3623
     20  O6         6.6760   81.0690   47.5580 O.2   300  IMU300     -0.2465
     21  N1         5.3090   82.8660   47.2390 N.am  300  IMU300      0.0083
     22  N2         3.8420   84.6860   46.9810 N.pl3 300  IMU300      0.1476
     23  N3         5.6890   84.5850   45.5440 N.2   300  IMU300     -0.0658
     24  C4         6.8070   83.8290   45.2170 C.2   300  IMU300      0.1810
     25  O1         4.4660   90.9350   40.8480 O.3   400  POP400      0.0000
     26  O2         6.3300   90.0850   42.4100 O.3   400  POP400      0.0000
     27  O3         4.0040   89.1460   42.4220 O.3   400  POP400      0.0000
     28  O          5.5340   88.7570   40.4260 O.2   400  POP400     -0.2201
     29  P2         6.1920   87.3280   40.3910 P.3   400  POP400      0.5592
     30  O4         5.5020   86.4470   41.3410 O.3   400  POP400     -0.1130
     31  O5         7.6320   87.4140   40.6890 O.3   400  POP400     -0.1130
     32  O6         5.9370   86.8720   38.8920 O.3   400  POP400     -0.1130
@<TRIPOS>BOND
     1     1     4    2
     2     1     5    1
     3     1     6    1
     4     1     3    1
     5     2    23    1
     6     2    22    1
     7     2    21    2
     8     6     7    1
     9     7     8    1
    10     8     9    1
    11     8    10    1
    12     9    14    1
    13    10    11    1
    14    10    12    1
    15    12    14    1
    16    12    13    1
    17    14    15    1
    18    15    16    2
    19    15    24    1
    20    16    17    1
    21    17    18    2
    22    18    24    1
    23    18    19    1
    24    19    21    1
    25    19    20    2
    26    23    24    2
    27    28    29    2
    28    29    32    1
    29    29    31    1
    30    29    30    1
