@<TRIPOS>MOLECULE
3ko0_TFP_16_ligand
   54    57     1     0     0
SMALL
NO_CHARGES


@<TRIPOS>ATOM
     1 C1          39.5300    46.9760    39.8400 C.ar         1 TFP202   0.0000
     2 C2          39.7160    46.6860    38.4800 C.ar         1 TFP202   0.0000
     3 C3          40.8700    46.0420    38.0290 C.ar         1 TFP202   0.0000
     4 C4          41.8290    45.6730    38.9640 C.ar         1 TFP202   0.0000
     5 C5          41.6370    46.0080    40.3950 C.ar         1 TFP202   0.0000
     6 C6          40.4730    46.6280    40.7990 C.ar         1 TFP202   0.0000
     7 S           43.2590    44.8550    38.4880 S.3          1 TFP202   0.0000
     8 C7          44.3790    45.5550    39.5780 C.ar         1 TFP202   0.0000
     9 C8          45.6720    45.8290    39.1670 C.ar         1 TFP202   0.0000
    10 C9          46.5570    46.3880    40.0900 C.ar         1 TFP202   0.0000
    11 C10         46.1690    46.6930    41.4070 C.ar         1 TFP202   0.0000
    12 C11         44.8590    46.4540    41.8570 C.ar         1 TFP202   0.0000
    13 C12         43.9480    45.9180    40.9490 C.ar         1 TFP202   0.0000
    14 N1          42.6340    45.5840    41.2890 N.pl3        1 TFP202   0.0000
    15 C13         42.3070    45.5000    42.7220 C.3          1 TFP202   0.0000
    16 C14         41.4500    44.2670    42.9570 C.3          1 TFP202   0.0000
    17 C15         42.0230    42.9630    42.4150 C.3          1 TFP202   0.0000
    18 N2          40.9800    41.9090    42.2270 N.4          1 TFP202   1.0000
    19 C16         41.6030    40.7010    41.6160 C.3          1 TFP202   0.0000
    20 C17         40.5260    39.6780    41.2780 C.3          1 TFP202   0.0000
    21 N3          39.8450    39.3290    42.5410 N.4          1 TFP202   1.0000
    22 C18         39.1970    40.5350    43.1250 C.3          1 TFP202   0.0000
    23 C19         40.2310    41.6020    43.4630 C.3          1 TFP202   0.0000
    24 C20         38.8680    38.2430    42.3100 C.3          1 TFP202   0.0000
    25 C21         38.2720    47.6390    40.2730 C.3          1 TFP202   0.0000
    26 F1          37.8140    47.1200    41.3970 F            1 TFP202   0.0000
    27 F2          37.4090    47.4350    39.3030 F            1 TFP202   0.0000
    28 F3          38.4350    48.9100    40.5450 F            1 TFP202   0.0000
    29 H1          39.0093    46.9452    37.8217 H            1 TFP202   0.0000
    30 H2          41.0029    45.8510    37.0564 H            1 TFP202   0.0000
    31 H3          40.3106    46.8237    41.7661 H            1 TFP202   0.0000
    32 H4          45.9649    45.6312    38.2315 H            1 TFP202   0.0000
    33 H5          47.4969    46.5777    39.8059 H            1 TFP202   0.0000
    34 H6          46.8387    47.0879    42.0360 H            1 TFP202   0.0000
    35 H7          44.5898    46.6617    42.7974 H            1 TFP202   0.0000
    36 H8          41.8030    46.3177    43.0003 H            1 TFP202   0.0000
    37 H9          43.1499    45.4302    43.2556 H            1 TFP202   0.0000
    38 H10         40.5630    44.4195    42.5211 H            1 TFP202   0.0000
    39 H11         41.3231    44.1624    43.9434 H            1 TFP202   0.0000
    40 H12         42.7090    42.6231    43.0583 H            1 TFP202   0.0000
    41 H13         42.4556    43.1461    41.5322 H            1 TFP202   0.0000
    42 H14         42.2511    40.2989    42.2627 H            1 TFP202   0.0000
    43 H15         42.0854    40.9633    40.7802 H            1 TFP202   0.0000
    44 H16         40.9421    38.8623    40.8761 H            1 TFP202   0.0000
    45 H17         39.8709    40.0705    40.6324 H            1 TFP202   0.0000
    46 H18         38.7121    40.2737    43.9596 H            1 TFP202   0.0000
    47 H19         38.5459    40.9085    42.4643 H            1 TFP202   0.0000
    48 H20         39.7734    42.4259    43.7975 H            1 TFP202   0.0000
    49 H21         40.8565    41.2601    44.1643 H            1 TFP202   0.0000
    50 H22         38.4133    38.0150    43.1710 H            1 TFP202   0.0000
    51 H23         38.1867    38.5439    41.6427 H            1 TFP202   0.0000
    52 H24         39.3434    37.4358    41.9602 H            1 TFP202   0.0000
    53 H25         40.3200    42.2647    41.5653 H            1 TFP202   0.0000
    54 H26         40.5332    38.9991    43.1872 H            1 TFP202   0.0000
@<TRIPOS>BOND
     1    1    2      ar
     2    1    6      ar
     3    1   25       1
     4    2    3      ar
     5    3    4      ar
     6    4    5      ar
     7    4    7       1
     8    5    6      ar
     9    5   14       1
    10    7    8       1
    11    8    9      ar
    12    8   13      ar
    13    9   10      ar
    14   10   11      ar
    15   11   12      ar
    16   12   13      ar
    17   13   14       1
    18   14   15       1
    19   15   16       1
    20   16   17       1
    21   17   18       1
    22   18   19       1
    23   18   23       1
    24   19   20       1
    25   20   21       1
    26   21   22       1
    27   21   24       1
    28   22   23       1
    29   25   26       1
    30   25   27       1
    31   25   28       1
    32    2   29       1
    33    3   30       1
    34    6   31       1
    35    9   32       1
    36   10   33       1
    37   11   34       1
    38   12   35       1
    39   15   36       1
    40   15   37       1
    41   16   38       1
    42   16   39       1
    43   17   40       1
    44   17   41       1
    45   19   42       1
    46   19   43       1
    47   20   44       1
    48   20   45       1
    49   22   46       1
    50   22   47       1
    51   23   48       1
    52   23   49       1
    53   24   50       1
    54   24   51       1
    55   24   52       1
    56   18   53       1
    57   21   54       1
@<TRIPOS>SUBSTRUCTURE
     1 TFP202      1 GROUP             4 H     TFP     0 **** TFP H 202
