@<TRIPOS>MOLECULE
4rtk_SAH_1_ligand
   46    48     1     0     0
SMALL
NO_CHARGES


@<TRIPOS>ATOM
     1 N           -7.7760    -1.8390    87.2780 N.4          1 SAH301   1.0000
     2 CA          -7.4800    -1.1440    88.5260 C.3          1 SAH301   0.0000
     3 CB          -6.3340    -0.1420    88.3850 C.3          1 SAH301   0.0000
     4 CG          -5.3420    -0.3730    87.2460 C.3          1 SAH301   0.0000
     5 SD          -4.0720     0.9170    87.2550 S.3          1 SAH301   0.0000
     6 C           -8.7100    -0.4740    89.1390 C.2          1 SAH301   0.0000
     7 O           -9.8460    -0.7140    88.7290 O.co2        1 SAH301   0.0000
     8 OXT         -8.5910     0.3190    90.0740 O.co2        1 SAH301  -1.0000
     9 C5'         -2.7150    -0.2640    87.0350 C.3          1 SAH301   0.0000
    10 C4'         -2.0580    -0.6890    88.3440 C.3          1 SAH301   0.0000
    11 O4'         -1.0020    -1.5890    88.0740 O.3          1 SAH301   0.0000
    12 C3'         -1.4530     0.4730    89.1180 C.3          1 SAH301   0.0000
    13 O3'         -2.1170     0.5940    90.3530 O.3          1 SAH301   0.0000
    14 C2'         -0.0040     0.0920    89.3610 C.3          1 SAH301   0.0000
    15 O2'          0.3390     0.2830    90.7140 O.3          1 SAH301   0.0000
    16 C1'          0.0520    -1.3820    88.9920 C.3          1 SAH301   0.0000
    17 N9           1.3400    -1.7760    88.3890 N.pl3        1 SAH301   0.0000
    18 C8           2.2030    -0.9940    87.6650 C.2          1 SAH301   0.0000
    19 N7           3.2630    -1.7530    87.2990 N.2          1 SAH301   0.0000
    20 C5           3.0880    -3.0050    87.7760 C.ar         1 SAH301   0.0000
    21 C6           3.8560    -4.1610    87.6920 C.ar         1 SAH301   0.0000
    22 N6           5.0160    -4.1560    87.0380 N.pl3        1 SAH301   0.0000
    23 N1           3.4060    -5.3170    88.2930 N.ar         1 SAH301   0.0000
    24 C2           2.2040    -5.3210    88.9710 C.ar         1 SAH301   0.0000
    25 N3           1.4470    -4.1700    89.0510 N.ar         1 SAH301   0.0000
    26 C4           1.8840    -3.0310    88.4630 C.ar         1 SAH301   0.0000
    27 H1          -7.6516    -2.8228    87.4068 H            1 SAH301   0.0000
    28 H2          -8.7217    -1.6548    87.0101 H            1 SAH301   0.0000
    29 HA          -7.1761    -1.8391    89.1775 H            1 SAH301   0.0000
    30 HB1         -5.8173    -0.1532    89.2411 H            1 SAH301   0.0000
    31 HB2         -6.7395     0.7624    88.2522 H            1 SAH301   0.0000
    32 HG1         -5.8296    -0.3508    86.3732 H            1 SAH301   0.0000
    33 HG2         -4.9071    -1.2660    87.3623 H            1 SAH301   0.0000
    34 H5'1        -2.0190     0.1586    86.4544 H            1 SAH301   0.0000
    35 H5'2        -3.0759    -1.0797    86.5829 H            1 SAH301   0.0000
    36 H4'         -2.7379    -1.1454    88.9179 H            1 SAH301   0.0000
    37 H3'         -1.5159     1.3224    88.5940 H            1 SAH301   0.0000
    38 H12         -2.0080    -0.2523    90.8744 H            1 SAH301   0.0000
    39 H2'          0.6012     0.6238    88.7686 H            1 SAH301   0.0000
    40 H14          0.1555    -0.5561    91.2261 H            1 SAH301   0.0000
    41 H1'         -0.1109    -1.9330    89.8105 H            1 SAH301   0.0000
    42 H16          2.0718    -0.0274    87.4447 H            1 SAH301   0.0000
    43 H17          5.5622    -4.9918    86.9824 H            1 SAH301   0.0000
    44 H18          5.3409    -3.3165    86.6025 H            1 SAH301   0.0000
    45 H19          1.8803    -6.1612    89.4060 H            1 SAH301   0.0000
    46 H20         -7.1576    -1.5158    86.5617 H            1 SAH301   0.0000
@<TRIPOS>BOND
     1    1    2       1
     2    2    3       1
     3    2    6       1
     4    3    4       1
     5    4    5       1
     6    5    9       1
     7    6    7      ar
     8    6    8      ar
     9    9   10       1
    10   10   11       1
    11   10   12       1
    12   11   16       1
    13   12   13       1
    14   12   14       1
    15   14   15       1
    16   14   16       1
    17   16   17       1
    18   17   18       1
    19   17   26       1
    20   18   19       2
    21   19   20       1
    22   20   21      ar
    23   20   26      ar
    24   21   22       1
    25   21   23      ar
    26   23   24      ar
    27   24   25      ar
    28   25   26      ar
    29    1   27       1
    30    1   28       1
    31    2   29       1
    32    3   30       1
    33    3   31       1
    34    4   32       1
    35    4   33       1
    36    1   46       1
    37    9   34       1
    38    9   35       1
    39   10   36       1
    40   12   37       1
    41   13   38       1
    42   14   39       1
    43   15   40       1
    44   16   41       1
    45   18   42       1
    46   22   43       1
    47   22   44       1
    48   24   45       1
@<TRIPOS>SUBSTRUCTURE
     1 SAH301      1 GROUP             4 A     SAH     0 **** SAH A 301
