@<TRIPOS>MOLECULE
4lna_ADE_1_ligand
   16    17     1     0     0
SMALL
NO_CHARGES


@<TRIPOS>ATOM
     1 N9          -7.8470     2.1880    18.3010 N.2          1 ADE502   0.0000
     2 C8          -7.8710     2.2950    19.6240 C.2          1 ADE502   0.0000
     3 N7          -6.6490     2.1720    20.1370 N.pl3        1 ADE502   0.0000
     4 C5          -5.8150     2.0190    19.1310 C.ar         1 ADE502   0.0000
     5 C6          -4.3770     1.8580    18.9600 C.ar         1 ADE502   0.0000
     6 N6          -3.5800     1.8320    20.0010 N.pl3        1 ADE502   0.0000
     7 N1          -3.9040     1.7240    17.7430 N.ar         1 ADE502   1.0000
     8 C2          -4.6870     1.7430    16.7040 C.ar         1 ADE502   0.0000
     9 N3          -5.9870     1.9000    16.7630 N.ar         1 ADE502   0.0000
    10 C4          -6.6050     2.0340    17.9260 C.ar         1 ADE502   0.0000
    11 H1          -8.6985     2.4479    20.1642 H            1 ADE502   0.0000
    12 H2          -2.5944     1.7211    19.8735 H            1 ADE502   0.0000
    13 H3          -3.9578     1.9231    20.9224 H            1 ADE502   0.0000
    14 H4          -4.2700     1.6305    15.8021 H            1 ADE502   0.0000
    15 H5          -6.4091     2.1922    21.1076 H            1 ADE502   0.0000
    16 H6          -2.9199     1.6046    17.6114 H            1 ADE502   0.0000
@<TRIPOS>BOND
     1    1    2       2
     2    1   10       1
     3    2    3       1
     4    3    4       1
     5    4    5      ar
     6    4   10      ar
     7    5    6       1
     8    5    7      ar
     9    7    8      ar
    10    8    9      ar
    11    9   10      ar
    12    8   14       1
    13    2   11       1
    14    6   12       1
    15    6   13       1
    16    3   15       1
    17    7   16       1
@<TRIPOS>SUBSTRUCTURE
     1 ADE502      1 GROUP             4 A     ADE     0 **** ADE A 502
