@<TRIPOS>MOLECULE
3mo0_SAH_3_ligand
   46    48     1     0     0
SMALL
NO_CHARGES


@<TRIPOS>ATOM
     1 N           23.6360   -13.9700    58.2770 N.4          1 SAH102   1.0000
     2 CA          22.4880   -14.8990    57.8990 C.3          1 SAH102   0.0000
     3 CB          21.2600   -14.3490    57.2360 C.3          1 SAH102   0.0000
     4 CG          20.3900   -13.2920    57.8880 C.3          1 SAH102   0.0000
     5 SD          18.9710   -14.1650    58.4860 S.3          1 SAH102   0.0000
     6 C           23.1380   -16.0260    57.0130 C.2          1 SAH102   0.0000
     7 O           24.3600   -16.0000    56.7890 O.co2        1 SAH102   0.0000
     8 OXT         22.3300   -16.9340    56.5760 O.co2        1 SAH102  -1.0000
     9 C5'         19.0510   -13.8290    60.1990 C.3          1 SAH102   0.0000
    10 C4'         20.1110   -14.6140    61.0820 C.3          1 SAH102   0.0000
    11 O4'         21.4290   -14.0570    60.9720 O.3          1 SAH102   0.0000
    12 C3'         19.8720   -14.6530    62.5600 C.3          1 SAH102   0.0000
    13 O3'         18.9560   -15.6880    62.9250 O.3          1 SAH102   0.0000
    14 C2'         21.3300   -14.8340    63.1370 C.3          1 SAH102   0.0000
    15 O2'         21.7290   -16.1970    63.2290 O.3          1 SAH102   0.0000
    16 C1'         22.2440   -14.0200    62.2080 C.3          1 SAH102   0.0000
    17 N9          22.5010   -12.7810    62.6390 N.pl3        1 SAH102   0.0000
    18 C8          22.1570   -11.5190    62.2070 C.2          1 SAH102   0.0000
    19 N7          22.6100   -10.5300    62.9100 N.2          1 SAH102   0.0000
    20 C5          23.3440   -11.1620    63.9470 C.ar         1 SAH102   0.0000
    21 C6          24.0860   -10.6370    65.0720 C.ar         1 SAH102   0.0000
    22 N6          24.2090    -9.3290    65.3310 N.pl3        1 SAH102   0.0000
    23 N1          24.6790   -11.5740    65.8890 N.ar         1 SAH102   0.0000
    24 C2          24.5910   -12.9160    65.6830 C.ar         1 SAH102   0.0000
    25 N3          23.8910   -13.4500    64.6260 N.ar         1 SAH102   0.0000
    26 C4          23.2940   -12.5280    63.8000 C.ar         1 SAH102   0.0000
    27 H1          24.1062   -14.3317    59.0820 H            1 SAH102   0.0000
    28 H2          24.2799   -13.9085    57.5144 H            1 SAH102   0.0000
    29 HA          22.1847   -15.3384    58.7445 H            1 SAH102   0.0000
    30 HB1         20.6631   -15.1323    57.0621 H            1 SAH102   0.0000
    31 HB2         21.5636   -13.9615    56.3656 H            1 SAH102   0.0000
    32 HG1         20.1197   -12.5990    57.2197 H            1 SAH102   0.0000
    33 HG2         20.8769   -12.8542    58.6438 H            1 SAH102   0.0000
    34 H5'1        18.1475   -14.0257    60.5799 H            1 SAH102   0.0000
    35 H5'2        19.2496   -12.8540    60.2986 H            1 SAH102   0.0000
    36 H4'         20.1476   -15.5572    60.7518 H            1 SAH102   0.0000
    37 H3'         19.5074   -13.7707    62.8578 H            1 SAH102   0.0000
    38 H12         18.8232   -15.6813    63.9161 H            1 SAH102   0.0000
    39 H2'         21.3634   -14.4298    64.0511 H            1 SAH102   0.0000
    40 H14         22.6565   -16.2485    63.5992 H            1 SAH102   0.0000
    41 H1'         23.1022   -14.5120    62.0620 H            1 SAH102   0.0000
    42 H16         21.5895   -11.3746    61.3964 H            1 SAH102   0.0000
    43 H17         24.7351    -9.0238    66.1247 H            1 SAH102   0.0000
    44 H18         23.7747    -8.6574    64.7307 H            1 SAH102   0.0000
    45 H19         25.0502   -13.5344    66.3208 H            1 SAH102   0.0000
    46 H20         23.2749   -13.0604    58.4825 H            1 SAH102   0.0000
@<TRIPOS>BOND
     1    1    2       1
     2    2    3       1
     3    2    6       1
     4    3    4       1
     5    4    5       1
     6    5    9       1
     7    6    7      ar
     8    6    8      ar
     9    9   10       1
    10   10   11       1
    11   10   12       1
    12   11   16       1
    13   12   13       1
    14   12   14       1
    15   14   15       1
    16   14   16       1
    17   16   17       1
    18   17   18       1
    19   17   26       1
    20   18   19       2
    21   19   20       1
    22   20   21      ar
    23   20   26      ar
    24   21   22       1
    25   21   23      ar
    26   23   24      ar
    27   24   25      ar
    28   25   26      ar
    29    1   27       1
    30    1   28       1
    31    2   29       1
    32    3   30       1
    33    3   31       1
    34    4   32       1
    35    4   33       1
    36    1   46       1
    37    9   34       1
    38    9   35       1
    39   10   36       1
    40   12   37       1
    41   13   38       1
    42   14   39       1
    43   15   40       1
    44   16   41       1
    45   18   42       1
    46   22   43       1
    47   22   44       1
    48   24   45       1
@<TRIPOS>SUBSTRUCTURE
     1 SAH102      1 GROUP             4 B     SAH     0 **** SAH B 102
