@<TRIPOS>MOLECULE
2vqy_ACO_1_ligand
   83    85     1     0     0
SMALL
NO_CHARGES


@<TRIPOS>ATOM
     1 N1A         -1.5450     3.3700    23.6930 N.ar         1 ACO1200   0.0000
     2 C2A         -0.9230     3.4510    24.8710 C.ar         1 ACO1200   0.0000
     3 N3A          0.0910     2.6390    25.1580 N.ar         1 ACO1200   0.0000
     4 C4A          0.5180     1.7220    24.2560 C.ar         1 ACO1200   0.0000
     5 C5A         -0.0940     1.6180    23.0210 C.ar         1 ACO1200   0.0000
     6 C6A         -1.1590     2.4720    22.7500 C.ar         1 ACO1200   0.0000
     7 N6A         -1.7870     2.4050    21.5710 N.pl3        1 ACO1200   0.0000
     8 N7A          0.5190     0.6500    22.3460 N.2          1 ACO1200   0.0000
     9 C8A          1.4800     0.1450    23.1260 C.2          1 ACO1200   0.0000
    10 N9A          1.4740     0.7990    24.2890 N.pl3        1 ACO1200   0.0000
    11 C1B          2.3750     0.6140    25.4650 C.3          1 ACO1200   0.0000
    12 C2B          2.6240    -0.7990    25.9610 C.3          1 ACO1200   0.0000
    13 O2B          1.5010    -1.2500    26.7260 O.3          1 ACO1200   0.0000
    14 C3B          3.8310    -0.5450    26.8580 C.3          1 ACO1200   0.0000
    15 O3B          3.4360     0.1310    28.0630 O.3          1 ACO1200   0.0000
    16 P3B          3.0820    -0.6470    29.4440 P.3          1 ACO1200   0.0000
    17 O7A          2.5960     0.5400    30.4300 O.co2        1 ACO1200   0.0000
    18 O8A          4.4880    -1.1770    29.9900 O.co2        1 ACO1200  -1.0000
    19 O9A          2.0540    -1.7020    29.2220 O.co2        1 ACO1200  -1.0000
    20 C4B          4.6260     0.5090    26.0650 C.3          1 ACO1200   0.0000
    21 O4B          3.6940     1.0700    25.1090 O.3          1 ACO1200   0.0000
    22 C5B          5.8570     0.0820    25.2420 C.3          1 ACO1200   0.0000
    23 O5B          6.9730    -0.2180    26.0820 O.3          1 ACO1200   0.0000
    24 P1A          8.0470    -1.3280    25.6070 P.3          1 ACO1200   0.0000
    25 O1A          9.3130    -1.1070    26.3760 O.co2        1 ACO1200   0.0000
    26 O2A          7.4670    -2.7030    25.5590 O.co2        1 ACO1200  -1.0000
    27 O3A          8.2570    -0.8640    24.1220 O.3          1 ACO1200   0.0000
    28 P2A          8.9990    -1.7290    22.9770 P.3          1 ACO1200   0.0000
    29 O4A          9.8710    -2.7400    23.5660 O.co2        1 ACO1200   0.0000
    30 O5A          7.9920    -2.1090    21.9270 O.co2        1 ACO1200  -1.0000
    31 O6A          9.9210    -0.5270    22.3520 O.3          1 ACO1200   0.0000
    32 CBP          9.9490     0.8380    20.2990 C.3          1 ACO1200   0.0000
    33 CCP          9.3900     0.6900    21.7350 C.3          1 ACO1200   0.0000
    34 CDP          9.3580     2.1540    19.6900 C.3          1 ACO1200   0.0000
    35 CEP         11.4870     0.9340    20.3860 C.3          1 ACO1200   0.0000
    36 CAP          9.4900    -0.4040    19.4530 C.3          1 ACO1200   0.0000
    37 OAP          8.0660    -0.6600    19.6390 O.3          1 ACO1200   0.0000
    38 C9P          9.8620    -0.2710    17.9510 C.2          1 ACO1200   0.0000
    39 O9P         11.0330    -0.4470    17.5830 O.2          1 ACO1200   0.0000
    40 N8P          8.8380     0.0440    17.1370 N.am         1 ACO1200   0.0000
    41 C7P          8.9310     0.2210    15.6790 C.3          1 ACO1200   0.0000
    42 C6P          9.9360     1.3380    15.2940 C.3          1 ACO1200   0.0000
    43 C5P          9.5890     2.7010    15.9190 C.2          1 ACO1200   0.0000
    44 O5P          8.4280     2.9650    16.2270 O.2          1 ACO1200   0.0000
    45 N4P         10.6620     3.5000    16.1050 N.am         1 ACO1200   0.0000
    46 C3P         10.7290     4.7500    16.6020 C.2          1 ACO1200   0.0000
    47 C2P          9.6950     5.4800    17.1370 C.2          1 ACO1200   0.0000
    48 S1P          9.9510     7.2770    17.5160 S.3          1 ACO1200   0.0000
    49 C           11.6640     7.7000    17.6960 C.2          1 ACO1200   0.0000
    50 O           12.5950     6.8830    17.5610 O.2          1 ACO1200   0.0000
    51 CH3         11.8600     9.1970    18.0650 C.3          1 ACO1200   0.0000
    52 H2A         -1.2217     4.1279    25.5438 H            1 ACO1200   0.0000
    53 H6A1        -1.4931     1.7393    20.8851 H            1 ACO1200   0.0000
    54 H6A2        -2.5504     3.0206    21.3754 H            1 ACO1200   0.0000
    55 H8A          2.1004    -0.5993    22.8789 H            1 ACO1200   0.0000
    56 H1B          2.0345     1.1685    26.2243 H            1 ACO1200   0.0000
    57 H2B          2.8408    -1.4248    25.2118 H            1 ACO1200   0.0000
    58 H7           1.7974    -1.4694    27.6555 H            1 ACO1200   0.0000
    59 H3B          4.3606    -1.3742    27.0365 H            1 ACO1200   0.0000
    60 H4B          4.9046     1.2334    26.6956 H            1 ACO1200   0.0000
    61 H5B1         6.1076     0.8263    24.6230 H            1 ACO1200   0.0000
    62 H5B2         5.6245    -0.7312    24.7085 H            1 ACO1200   0.0000
    63 HCP1         9.6608     1.4836    22.2799 H            1 ACO1200   0.0000
    64 HCP2         8.3922     0.6354    21.6986 H            1 ACO1200   0.0000
    65 HDP1         9.7035     2.2752    18.7595 H            1 ACO1200   0.0000
    66 HDP2         8.3601     2.0931    19.6697 H            1 ACO1200   0.0000
    67 HDP3         9.6330     2.9342    20.2519 H            1 ACO1200   0.0000
    68 HEP1        11.8675     1.0303    19.4663 H            1 ACO1200   0.0000
    69 HEP2        11.7407     1.7292    20.9367 H            1 ACO1200   0.0000
    70 HEP3        11.8492     0.1047    20.8115 H            1 ACO1200   0.0000
    71 HAP          9.9808    -1.1996    19.8083 H            1 ACO1200   0.0000
    72 H21          7.9376    -1.2862    20.4080 H            1 ACO1200   0.0000
    73 H8P          7.9393     0.1681    17.5576 H            1 ACO1200   0.0000
    74 H7P1         8.0277     0.4628    15.3246 H            1 ACO1200   0.0000
    75 H7P2         9.2311    -0.6396    15.2675 H            1 ACO1200   0.0000
    76 H6P1         9.9385     1.4352    14.2987 H            1 ACO1200   0.0000
    77 H6P2        10.8472     1.0677    15.6048 H            1 ACO1200   0.0000
    78 H4P         11.5388     3.1037    15.8327 H            1 ACO1200   0.0000
    79 H3P         11.6251     5.1933    16.5793 H            1 ACO1200   0.0000
    80 H2P          8.8128     5.0462    17.3202 H            1 ACO1200   0.0000
    81 HH31        12.8364     9.3926    18.1567 H            1 ACO1200   0.0000
    82 HH32        11.4711     9.7715    17.3448 H            1 ACO1200   0.0000
    83 HH33        11.3986     9.3900    18.9310 H            1 ACO1200   0.0000
@<TRIPOS>BOND
     1    1    2      ar
     2    1    6      ar
     3    2    3      ar
     4    3    4      ar
     5    4    5      ar
     6    4   10       1
     7    5    6      ar
     8    5    8       1
     9    6    7       1
    10    8    9       2
    11    9   10       1
    12   10   11       1
    13   11   12       1
    14   11   21       1
    15   12   13       1
    16   12   14       1
    17   14   15       1
    18   14   20       1
    19   15   16       1
    20   16   17      ar
    21   16   18      ar
    22   16   19      ar
    23   20   21       1
    24   20   22       1
    25   22   23       1
    26   23   24       1
    27   24   25      ar
    28   24   26      ar
    29   24   27       1
    30   27   28       1
    31   28   29      ar
    32   28   30      ar
    33   28   31       1
    34   31   33       1
    35   32   33       1
    36   32   34       1
    37   32   35       1
    38   32   36       1
    39   36   37       1
    40   36   38       1
    41   38   39       2
    42   38   40      am
    43   40   41       1
    44   41   42       1
    45   42   43       1
    46   43   44       2
    47   43   45      am
    48   45   46       1
    49   46   47       2
    50   47   48       1
    51   48   49       1
    52   49   50       2
    53   49   51       1
    54    2   52       1
    55    7   53       1
    56    7   54       1
    57    9   55       1
    58   11   56       1
    59   12   57       1
    60   13   58       1
    61   14   59       1
    62   51   83       1
    63   51   82       1
    64   20   60       1
    65   22   61       1
    66   22   62       1
    67   51   81       1
    68   47   80       1
    69   33   63       1
    70   33   64       1
    71   34   65       1
    72   34   66       1
    73   34   67       1
    74   35   68       1
    75   35   69       1
    76   35   70       1
    77   36   71       1
    78   37   72       1
    79   40   73       1
    80   41   74       1
    81   41   75       1
    82   42   76       1
    83   42   77       1
    84   45   78       1
    85   46   79       1
@<TRIPOS>SUBSTRUCTURE
     1 ACO1200     1 GROUP             4 A     ACO     0 **** ACO A1200
