@<TRIPOS>MOLECULE
3lla_ACP_2_ligand
   45    47     1     0     0
SMALL
NO_CHARGES


@<TRIPOS>ATOM
     1 PG         -13.7460   -16.6780    -6.3680 P.3          1 ACP1303   0.0000
     2 O1G        -13.2670   -17.7050    -7.3750 O.co2        1 ACP1303   0.0000
     3 O2G        -14.4630   -15.5130    -7.0070 O.co2        1 ACP1303  -1.0000
     4 O3G        -12.7060   -16.2260    -5.3710 O.co2        1 ACP1303  -1.0000
     5 PB         -16.3020   -18.4080    -6.2160 P.3          1 ACP1303   0.0000
     6 O1B        -15.7600   -19.2200    -7.3740 O.co2        1 ACP1303   0.0000
     7 O2B        -17.1560   -19.1750    -5.2330 O.co2        1 ACP1303  -1.0000
     8 C3B        -14.9550   -17.5630    -5.3200 C.3          1 ACP1303   0.0000
     9 PA         -17.8390   -16.1160    -5.8590 P.3          1 ACP1303   0.0000
    10 O1A        -16.7280   -15.1270    -5.6310 O.co2        1 ACP1303   0.0000
    11 O2A        -18.5810   -16.6910    -4.6770 O.co2        1 ACP1303  -1.0000
    12 O3A        -17.2920   -17.2920    -6.8000 O.3          1 ACP1303   0.0000
    13 O5'        -18.8710   -15.3430    -6.8030 O.3          1 ACP1303   0.0000
    14 C5'        -18.4590   -14.9260    -8.1050 C.3          1 ACP1303   0.0000
    15 C4'        -18.4610   -13.4030    -8.2060 C.3          1 ACP1303   0.0000
    16 O4'        -19.7680   -12.9030    -7.9390 O.3          1 ACP1303   0.0000
    17 C3'        -17.5580   -12.6980    -7.2060 C.3          1 ACP1303   0.0000
    18 O3'        -16.2230   -12.5830    -7.6840 O.3          1 ACP1303   0.0000
    19 C2'        -18.2130   -11.3510    -7.0450 C.3          1 ACP1303   0.0000
    20 O2'        -17.7730   -10.4950    -8.1060 O.3          1 ACP1303   0.0000
    21 C1'        -19.6880   -11.6430    -7.2620 C.3          1 ACP1303   0.0000
    22 N9         -20.4410   -11.8100    -5.9950 N.pl3        1 ACP1303   0.0000
    23 C8         -20.2530   -12.8040    -5.1050 C.2          1 ACP1303   0.0000
    24 N7         -21.1120   -12.6910    -4.0710 N.2          1 ACP1303   0.0000
    25 C5         -21.8920   -11.6240    -4.2970 C.ar         1 ACP1303   0.0000
    26 C6         -23.0120   -10.9580    -3.5960 C.ar         1 ACP1303   0.0000
    27 N6         -23.4770   -11.4350    -2.4210 N.pl3        1 ACP1303   0.0000
    28 N1         -23.5560    -9.8550    -4.1630 N.ar         1 ACP1303   0.0000
    29 C2         -23.1000    -9.3820    -5.3450 C.ar         1 ACP1303   0.0000
    30 N3         -22.0860    -9.9360    -6.0340 N.ar         1 ACP1303   0.0000
    31 C4         -21.4500   -11.0440    -5.5730 C.ar         1 ACP1303   0.0000
    32 H3B1       -15.3685   -16.8980    -4.6980 H            1 ACP1303   0.0000
    33 H3B2       -14.4584   -18.2508    -4.7905 H            1 ACP1303   0.0000
    34 H5'1       -19.0887   -15.3014    -8.7851 H            1 ACP1303   0.0000
    35 H5'2       -17.5355   -15.2661    -8.2823 H            1 ACP1303   0.0000
    36 H4'        -18.1928   -13.1370    -9.1319 H            1 ACP1303   0.0000
    37 H3'        -17.5669   -13.1878    -6.3342 H            1 ACP1303   0.0000
    38 H7         -16.1226   -11.7260    -8.1894 H            1 ACP1303   0.0000
    39 H2'        -18.0375   -10.9533    -6.1444 H            1 ACP1303   0.0000
    40 H9         -18.0311   -10.8947    -8.9856 H            1 ACP1303   0.0000
    41 H1'        -20.1042   -10.9244    -7.8191 H            1 ACP1303   0.0000
    42 H11        -19.5692   -13.5276    -5.1983 H            1 ACP1303   0.0000
    43 H12        -24.2347   -10.9741    -1.9590 H            1 ACP1303   0.0000
    44 H13        -23.0636   -12.2491    -2.0131 H            1 ACP1303   0.0000
    45 H14        -23.5429    -8.5722    -5.7298 H            1 ACP1303   0.0000
@<TRIPOS>BOND
     1    1    2      ar
     2    1    3      ar
     3    1    4      ar
     4    1    8       1
     5    5    6      ar
     6    5    7      ar
     7    5    8       1
     8    5   12       1
     9    9   10      ar
    10    9   11      ar
    11    9   12       1
    12    9   13       1
    13   13   14       1
    14   14   15       1
    15   15   16       1
    16   15   17       1
    17   16   21       1
    18   17   18       1
    19   17   19       1
    20   19   20       1
    21   19   21       1
    22   21   22       1
    23   22   23       1
    24   22   31       1
    25   23   24       2
    26   24   25       1
    27   25   26      ar
    28   25   31      ar
    29   26   27       1
    30   26   28      ar
    31   28   29      ar
    32   29   30      ar
    33   30   31      ar
    34   29   45       1
    35   27   44       1
    36   27   43       1
    37    8   32       1
    38    8   33       1
    39   23   42       1
    40   14   34       1
    41   14   35       1
    42   15   36       1
    43   17   37       1
    44   18   38       1
    45   19   39       1
    46   20   40       1
    47   21   41       1
@<TRIPOS>SUBSTRUCTURE
     1 ACP1303     1 GROUP             4 B     ACP     0 **** ACP B1303
