@<TRIPOS>MOLECULE
3bgi_SAH_2_ligand
   46    48     1     0     0
SMALL
NO_CHARGES


@<TRIPOS>ATOM
     1 N            3.3840    29.9970     7.0290 N.4          1 SAH300   1.0000
     2 CA           3.6270    28.9290     6.0490 C.3          1 SAH300   0.0000
     3 CB           5.1410    28.7130     5.7280 C.3          1 SAH300   0.0000
     4 CG           6.1510    28.6700     6.9320 C.3          1 SAH300   0.0000
     5 SD           7.9610    28.4140     6.5510 S.3          1 SAH300   0.0000
     6 C            3.0050    27.6620     6.6280 C.2          1 SAH300   0.0000
     7 O            3.0010    27.5310     7.8590 O.co2        1 SAH300   0.0000
     8 OXT          2.5240    26.7850     5.8860 O.co2        1 SAH300  -1.0000
     9 C5'          8.5610    30.0870     6.0460 C.3          1 SAH300   0.0000
    10 C4'          8.0520    30.4820     4.6730 C.3          1 SAH300   0.0000
    11 O4'          8.5330    31.8490     4.4520 O.3          1 SAH300   0.0000
    12 C3'          8.6810    29.6440     3.5720 C.3          1 SAH300   0.0000
    13 O3'          7.6710    29.2980     2.5840 O.3          1 SAH300   0.0000
    14 C2'          9.7920    30.5880     2.9930 C.3          1 SAH300   0.0000
    15 O2'         10.0540    30.4100     1.5570 O.3          1 SAH300   0.0000
    16 C1'          9.1670    31.9470     3.1460 C.3          1 SAH300   0.0000
    17 N9          10.0860    33.0450     3.5340 N.pl3        1 SAH300   0.0000
    18 C8          11.1280    32.9640     4.3810 C.2          1 SAH300   0.0000
    19 N7          11.6700    34.1690     4.5490 N.2          1 SAH300   0.0000
    20 C5          10.9280    35.0380     3.8280 C.ar         1 SAH300   0.0000
    21 C6          10.9690    36.4220     3.5760 C.ar         1 SAH300   0.0000
    22 N6          11.8960    37.2430     4.1310 N.pl3        1 SAH300   0.0000
    23 N1          10.0120    36.9410     2.8030 N.ar         1 SAH300   0.0000
    24 C2           9.0790    36.2080     2.1950 C.ar         1 SAH300   0.0000
    25 N3           8.9980    34.9010     2.4080 N.ar         1 SAH300   0.0000
    26 C4           9.9270    34.3050     3.1810 C.ar         1 SAH300   0.0000
    27 H1           2.4009    30.0844     7.1899 H            1 SAH300   0.0000
    28 H2           3.8437    29.7720     7.8881 H            1 SAH300   0.0000
    29 HA           3.1505    29.1597     5.2006 H            1 SAH300   0.0000
    30 HB1          5.4269    29.4588     5.1263 H            1 SAH300   0.0000
    31 HB2          5.2208    27.8430     5.2415 H            1 SAH300   0.0000
    32 HG1          5.8654    27.9235     7.5330 H            1 SAH300   0.0000
    33 HG2          6.0700    29.5396     7.4190 H            1 SAH300   0.0000
    34 H5'1         9.5609    30.0803     6.0301 H            1 SAH300   0.0000
    35 H5'2         8.2427    30.7595     6.7142 H            1 SAH300   0.0000
    36 H4'          7.0537    30.4400     4.6326 H            1 SAH300   0.0000
    37 H3'          9.0916    28.8166     3.9552 H            1 SAH300   0.0000
    38 H12          7.2910    30.1343     2.1888 H            1 SAH300   0.0000
    39 H2'         10.6363    30.5183     3.5243 H            1 SAH300   0.0000
    40 H14          9.4585    31.0178     1.0317 H            1 SAH300   0.0000
    41 H1'          8.5373    32.1883     2.4076 H            1 SAH300   0.0000
    42 H16         11.4480    32.1241     4.8193 H            1 SAH300   0.0000
    43 H17         11.8864    38.2210     3.9228 H            1 SAH300   0.0000
    44 H18         12.5888    36.8700     4.7482 H            1 SAH300   0.0000
    45 H19          8.4330    36.6483     1.5714 H            1 SAH300   0.0000
    46 H20          3.7421    30.8613     6.6758 H            1 SAH300   0.0000
@<TRIPOS>BOND
     1    1    2       1
     2    2    3       1
     3    2    6       1
     4    3    4       1
     5    4    5       1
     6    5    9       1
     7    6    7      ar
     8    6    8      ar
     9    9   10       1
    10   10   11       1
    11   10   12       1
    12   11   16       1
    13   12   13       1
    14   12   14       1
    15   14   15       1
    16   14   16       1
    17   16   17       1
    18   17   18       1
    19   17   26       1
    20   18   19       2
    21   19   20       1
    22   20   21      ar
    23   20   26      ar
    24   21   22       1
    25   21   23      ar
    26   23   24      ar
    27   24   25      ar
    28   25   26      ar
    29    1   27       1
    30    1   28       1
    31    2   29       1
    32    3   30       1
    33    3   31       1
    34    4   32       1
    35    4   33       1
    36    1   46       1
    37    9   34       1
    38    9   35       1
    39   10   36       1
    40   12   37       1
    41   13   38       1
    42   14   39       1
    43   15   40       1
    44   16   41       1
    45   18   42       1
    46   22   43       1
    47   22   44       1
    48   24   45       1
@<TRIPOS>SUBSTRUCTURE
     1 SAH300      1 GROUP             4 B     SAH     0 **** SAH B 300
