@<TRIPOS>MOLECULE
1xdq_MTE_2_ligand
   32    34     1     0     0
SMALL
NO_CHARGES


@<TRIPOS>ATOM
     1 N1         -43.3090   -15.5950    13.0280 N.2          1 MTE302   0.0000
     2 C2         -42.1100   -15.0360    13.4140 C.2          1 MTE302   0.0000
     3 N2         -41.0800   -15.7590    13.6410 N.pl3        1 MTE302   0.0000
     4 N3         -41.9870   -13.7510    13.5630 N.pl3        1 MTE302   0.0000
     5 C4         -43.0570   -12.8810    13.3580 C.2          1 MTE302   0.0000
     6 O4         -43.0810   -11.5890    13.4790 O.2          1 MTE302   0.0000
     7 N5         -45.5050   -12.5870    12.7850 N.2          1 MTE302   0.0000
     8 C6         -46.8970   -13.0470    12.3950 C.2          1 MTE302   0.0000
     9 C7         -46.9030   -14.6310    12.1210 C.3          1 MTE302   0.0000
    10 N8         -45.6820   -15.3490    12.3820 N.pl3        1 MTE302   0.0000
    11 C9         -44.3340   -13.4080    12.9750 C.2          1 MTE302   0.0000
    12 C10        -44.4530   -14.9230    12.7800 C.2          1 MTE302   0.0000
    13 C1'        -48.0610   -12.2600    12.5070 C.2          1 MTE302   0.0000
    14 S1'        -48.4670   -11.1530    13.7400 S.2          1 MTE302   0.0000
    15 C2'        -48.7810   -12.6280    11.3070 C.2          1 MTE302   0.0000
    16 S2'        -50.2710   -11.7120    11.2080 S.2          1 MTE302   0.0000
    17 C3'        -48.2320   -13.7520    10.2510 C.3          1 MTE302   0.0000
    18 O3'        -46.9760   -14.4470    10.6550 O.3          1 MTE302   0.0000
    19 C4'        -47.9740   -13.1760     8.9950 C.3          1 MTE302   0.0000
    20 O4'        -48.0500   -14.1040     7.8380 O.3          1 MTE302   0.0000
    21 P          -47.5230   -13.6220     6.5920 P.3          1 MTE302   0.0000
    22 O1P        -46.5000   -12.7260     6.5710 O.co2        1 MTE302   0.0000
    23 O2P        -46.9910   -14.7260     5.9440 O.co2        1 MTE302  -1.0000
    24 O3P        -48.6880   -12.9590     5.8540 O.co2        1 MTE302  -1.0000
    25 H1         -40.2204   -15.3311    13.9201 H            1 MTE302   0.0000
    26 H2         -41.1341   -16.7524    13.5394 H            1 MTE302   0.0000
    27 H3         -47.7099   -15.0873    12.4961 H            1 MTE302   0.0000
    28 H4         -45.7499   -16.3374    12.2464 H            1 MTE302   0.0000
    29 H3'        -48.9454   -14.4431    10.1348 H            1 MTE302   0.0000
    30 H4'1       -47.0531   -12.7869     9.0179 H            1 MTE302   0.0000
    31 H4'2       -48.6409   -12.4455     8.8483 H            1 MTE302   0.0000
    32 H8         -41.1001   -13.3756    13.8322 H            1 MTE302   0.0000
@<TRIPOS>BOND
     1    1    2       2
     2    1   12       1
     3    2    3       1
     4    2    4       1
     5    4    5       1
     6    5    6       2
     7    5   11       1
     8    7    8       2
     9    7   11       1
    10    8    9       1
    11    8   13       1
    12    9   10       1
    13    9   18       1
    14   10   12       1
    15   11   12       2
    16   13   14       2
    17   13   15       1
    18   15   16       2
    19   15   17       1
    20   17   18       1
    21   17   19       1
    22   19   20       1
    23   20   21       1
    24   21   22      ar
    25   21   23      ar
    26   21   24      ar
    27    4   32       1
    28    3   25       1
    29    3   26       1
    30    9   27       1
    31   10   28       1
    32   17   29       1
    33   19   30       1
    34   19   31       1
@<TRIPOS>SUBSTRUCTURE
     1 MTE302      1 GROUP             4 B     MTE     0 **** MTE B 302
