@<TRIPOS>MOLECULE
3gue_UPG_1_ligand
   58    60     1     0     0
SMALL
NO_CHARGES


@<TRIPOS>ATOM
     1 N1          29.5000    -2.2350     3.1710 N.pl3        1 UPG484   0.0000
     2 C2          30.1120    -2.6940     4.3550 C.2          1 UPG484   0.0000
     3 N3          30.8110    -3.8860     4.2860 N.pl3        1 UPG484   0.0000
     4 C4          30.9270    -4.6270     3.1340 C.2          1 UPG484   0.0000
     5 C5          30.3050    -4.1890     1.9580 C.2          1 UPG484   0.0000
     6 C6          29.5860    -2.9980     1.9640 C.2          1 UPG484   0.0000
     7 O2          30.0920    -2.0920     5.4390 O.2          1 UPG484   0.0000
     8 O4          31.5910    -5.6710     3.1880 O.2          1 UPG484   0.0000
     9 C1C         28.7260    -0.9520     3.1900 C.3          1 UPG484   0.0000
    10 C2C         28.9570     0.1070     2.1080 C.3          1 UPG484   0.0000
    11 O2C         30.1060     0.9090     2.4150 O.3          1 UPG484   0.0000
    12 C3C         27.6720     0.9180     2.2570 C.3          1 UPG484   0.0000
    13 C4C         26.6340    -0.1610     2.5210 C.3          1 UPG484   0.0000
    14 O4C         27.3460    -1.3230     3.0250 O.3          1 UPG484   0.0000
    15 O3C         27.7710     1.7340     3.4230 O.3          1 UPG484   0.0000
    16 C5C         25.9000    -0.5910     1.2090 C.3          1 UPG484   0.0000
    17 O5C         26.7230    -1.2580     0.2900 O.3          1 UPG484   0.0000
    18 PA          26.6090    -0.9660    -1.2930 P.3          1 UPG484   0.0000
    19 O1A         26.6010     0.5200    -1.4080 O.co2        1 UPG484   0.0000
    20 O2A         27.5840    -1.7460    -2.0640 O.co2        1 UPG484  -1.0000
    21 O3A         25.0820    -1.4880    -1.6170 O.3          1 UPG484   0.0000
    22 PB          24.6230    -2.9830    -2.0660 P.3          1 UPG484   0.0000
    23 O1B         25.1730    -3.9420    -1.0930 O.co2        1 UPG484   0.0000
    24 O2B         24.8470    -3.1990    -3.5300 O.co2        1 UPG484  -1.0000
    25 O3B         23.0350    -2.7970    -1.9250 O.3          1 UPG484   0.0000
    26 C1'         22.4630    -2.5620    -0.5860 C.3          1 UPG484   0.0000
    27 C2'         21.4810    -3.6810    -0.2690 C.3          1 UPG484   0.0000
    28 C3'         20.4280    -3.6950    -1.3700 C.3          1 UPG484   0.0000
    29 C4'         19.7000    -2.3410    -1.3800 C.3          1 UPG484   0.0000
    30 C5'         20.7150    -1.1870    -1.5810 C.3          1 UPG484   0.0000
    31 C6'         20.0720     0.1420    -1.2810 C.3          1 UPG484   0.0000
    32 O2'         22.1420    -4.9590    -0.2230 O.3          1 UPG484   0.0000
    33 O3'         19.5540    -4.7910    -1.1620 O.3          1 UPG484   0.0000
    34 O4'         18.7210    -2.3070    -2.4070 O.3          1 UPG484   0.0000
    35 O5'         21.8390    -1.2650    -0.6620 O.3          1 UPG484   0.0000
    36 O6'         20.8790     1.1880    -1.8260 O.3          1 UPG484   0.0000
    37 H1          31.2540    -4.2255     5.1157 H            1 UPG484   0.0000
    38 H2          30.3773    -4.7289     1.1194 H            1 UPG484   0.0000
    39 H3          29.1332    -2.6780     1.1318 H            1 UPG484   0.0000
    40 H1C         28.8377    -0.5236     4.0867 H            1 UPG484   0.0000
    41 H2C         29.0284    -0.3050     1.1996 H            1 UPG484   0.0000
    42 H6          30.5294     1.2238     1.5655 H            1 UPG484   0.0000
    43 H3C         27.4637     1.4518     1.4375 H            1 UPG484   0.0000
    44 H4C         25.9708     0.1573     3.1984 H            1 UPG484   0.0000
    45 H9          28.1713     2.6172     3.1787 H            1 UPG484   0.0000
    46 H5C1        25.5364     0.2297     0.7682 H            1 UPG484   0.0000
    47 H5C2        25.1454    -1.1993     1.4552 H            1 UPG484   0.0000
    48 H1'         23.1932    -2.5477     0.0971 H            1 UPG484   0.0000
    49 H2'         21.0417    -3.5004     0.6110 H            1 UPG484   0.0000
    50 H3'         20.8879    -3.8163    -2.2496 H            1 UPG484   0.0000
    51 H4'         19.2440    -2.2163    -0.4988 H            1 UPG484   0.0000
    52 H5'         21.0498    -1.1937    -2.5233 H            1 UPG484   0.0000
    53 H6'1        19.9948     0.2604    -0.2910 H            1 UPG484   0.0000
    54 H6'2        19.1611     0.1734    -1.6925 H            1 UPG484   0.0000
    55 H19         22.1317    -5.3725    -1.1334 H            1 UPG484   0.0000
    56 H20         19.9074    -5.5947    -1.6407 H            1 UPG484   0.0000
    57 H21         17.8191    -2.1547    -2.0028 H            1 UPG484   0.0000
    58 H6'         20.5859     1.3817    -2.7622 H            1 UPG484   0.0000
@<TRIPOS>BOND
     1    1    2       1
     2    1    6       1
     3    1    9       1
     4    2    3       1
     5    2    7       2
     6    3    4       1
     7    4    5       1
     8    4    8       2
     9    5    6       2
    10    9   10       1
    11    9   14       1
    12   10   11       1
    13   10   12       1
    14   12   13       1
    15   12   15       1
    16   13   14       1
    17   13   16       1
    18   16   17       1
    19   17   18       1
    20   18   19      ar
    21   18   20      ar
    22   18   21       1
    23   21   22       1
    24   22   23      ar
    25   22   24      ar
    26   22   25       1
    27   25   26       1
    28   26   27       1
    29   26   35       1
    30   27   28       1
    31   27   32       1
    32   28   29       1
    33   28   33       1
    34   29   30       1
    35   29   34       1
    36   30   31       1
    37   30   35       1
    38   31   36       1
    39    3   37       1
    40    5   38       1
    41    6   39       1
    42    9   40       1
    43   10   41       1
    44   11   42       1
    45   12   43       1
    46   13   44       1
    47   15   45       1
    48   16   46       1
    49   16   47       1
    50   36   58       1
    51   34   57       1
    52   26   48       1
    53   27   49       1
    54   28   50       1
    55   29   51       1
    56   30   52       1
    57   31   53       1
    58   31   54       1
    59   32   55       1
    60   33   56       1
@<TRIPOS>SUBSTRUCTURE
     1 UPG484      1 GROUP             4 A     UPG     0 **** UPG A 484
