@<TRIPOS>MOLECULE
3vcy_UD1_4_ligand
   64    66     1     0     0
SMALL
NO_CHARGES


@<TRIPOS>ATOM
     1 C1'         27.0440    20.2210    23.9500 C.3          1 UD1501   0.0000
     2 C2'         28.3530    19.4420    24.1060 C.3          1 UD1501   0.0000
     3 C3'         28.0720    17.9360    24.0550 C.3          1 UD1501   0.0000
     4 C4'         27.0340    17.5570    25.1210 C.3          1 UD1501   0.0000
     5 C5'         25.7890    18.4120    24.9240 C.3          1 UD1501   0.0000
     6 C6'         24.6760    18.1120    25.9220 C.3          1 UD1501   0.0000
     7 C7'         30.1290    20.9120    23.2880 C.2          1 UD1501   0.0000
     8 C8'         31.0710    21.2300    22.1660 C.3          1 UD1501   0.0000
     9 N2'         29.3160    19.8680    23.1070 N.am         1 UD1501   0.0000
    10 O1'         26.4850    19.9360    22.6520 O.3          1 UD1501   0.0000
    11 O3'         29.2620    17.2010    24.2950 O.3          1 UD1501   0.0000
    12 O4'         26.7060    16.1540    25.0780 O.3          1 UD1501   0.0000
    13 O5'         26.1610    19.7990    25.0050 O.3          1 UD1501   0.0000
    14 O6'         25.1860    18.1620    27.2570 O.3          1 UD1501   0.0000
    15 O7'         30.1280    21.5720    24.3100 O.2          1 UD1501   0.0000
    16 N1          18.8660    21.0890    19.8810 N.pl3        1 UD1501   0.0000
    17 C2          17.8690    21.6180    19.0110 C.2          1 UD1501   0.0000
    18 N3          18.0620    22.7890    18.3750 N.pl3        1 UD1501   0.0000
    19 C4          19.2060    23.4880    18.5610 C.2          1 UD1501   0.0000
    20 C5          20.1880    23.0120    19.4330 C.2          1 UD1501   0.0000
    21 C6          19.9910    21.8050    20.0910 C.2          1 UD1501   0.0000
    22 O2          16.8180    20.9680    18.8030 O.2          1 UD1501   0.0000
    23 O4          19.3910    24.5880    17.9780 O.2          1 UD1501   0.0000
    24 C1B         18.6520    19.7920    20.5640 C.3          1 UD1501   0.0000
    25 C2B         19.7670    18.7760    20.3200 C.3          1 UD1501   0.0000
    26 O2'         19.5860    17.9630    19.1750 O.3          1 UD1501   0.0000
    27 C3B         19.7010    17.8790    21.5250 C.3          1 UD1501   0.0000
    28 C4B         19.2940    18.8290    22.6370 C.3          1 UD1501   0.0000
    29 O4B         18.6650    19.9550    21.9870 O.3          1 UD1501   0.0000
    30 O3B         18.6810    16.8820    21.3330 O.3          1 UD1501   0.0000
    31 C5B         20.4900    19.2830    23.4910 C.3          1 UD1501   0.0000
    32 O5B         21.5510    19.7510    22.6580 O.3          1 UD1501   0.0000
    33 PA          22.5400    20.9630    23.0760 P.3          1 UD1501   0.0000
    34 O1A         22.3660    22.0910    22.1030 O.co2        1 UD1501   0.0000
    35 O2A         22.3770    21.1290    24.5640 O.co2        1 UD1501  -1.0000
    36 O3A         23.9620    20.2020    22.8510 O.3          1 UD1501   0.0000
    37 PB          25.2310    20.7900    22.0700 P.3          1 UD1501   0.0000
    38 O1B         25.4450    22.2590    22.3710 O.co2        1 UD1501   0.0000
    39 O2B         25.1450    20.3610    20.6330 O.co2        1 UD1501  -1.0000
    40 H1'         27.2232    21.2014    24.0321 H            1 UD1501   0.0000
    41 H2'         28.7311    19.6537    25.0072 H            1 UD1501   0.0000
    42 H3'         27.7161    17.6987    23.1511 H            1 UD1501   0.0000
    43 H4'         27.4179    17.7629    26.0211 H            1 UD1501   0.0000
    44 H5'         25.4361    18.2387    24.0045 H            1 UD1501   0.0000
    45 H6'1        24.3080    17.1997    25.7425 H            1 UD1501   0.0000
    46 H6'2        23.9487    18.7908    25.8202 H            1 UD1501   0.0000
    47 H8'1        31.6261    22.0246    22.4119 H            1 UD1501   0.0000
    48 H8'2        31.6679    20.4452    21.9993 H            1 UD1501   0.0000
    49 H8'3        30.5474    21.4323    21.3384 H            1 UD1501   0.0000
    50 H11         29.3730    19.3590    22.2481 H            1 UD1501   0.0000
    51 H12         29.1420    16.6278    25.1056 H            1 UD1501   0.0000
    52 H13         27.3244    15.6485    25.6797 H            1 UD1501   0.0000
    53 H6'         24.4598    18.4514    27.8806 H            1 UD1501   0.0000
    54 H15         17.3563    23.1442    17.7619 H            1 UD1501   0.0000
    55 H16         21.0263    23.5363    19.5823 H            1 UD1501   0.0000
    56 H17         20.6863    21.4644    20.7238 H            1 UD1501   0.0000
    57 H1B         17.7758    19.4034    20.2789 H            1 UD1501   0.0000
    58 H2B         20.6532    19.2376    20.2802 H            1 UD1501   0.0000
    59 H20         19.5489    17.0025    19.4507 H            1 UD1501   0.0000
    60 H3B         20.5885    17.4586    21.7135 H            1 UD1501   0.0000
    61 H4B         18.6249    18.3757    23.2259 H            1 UD1501   0.0000
    62 H23         18.9320    16.0491    21.8262 H            1 UD1501   0.0000
    63 H5B1        20.8163    18.5113    24.0369 H            1 UD1501   0.0000
    64 H5B2        20.1987    20.0217    24.0988 H            1 UD1501   0.0000
@<TRIPOS>BOND
     1    1    2       1
     2    1   10       1
     3    1   13       1
     4    2    3       1
     5    2    9       1
     6    3    4       1
     7    3   11       1
     8    4    5       1
     9    4   12       1
    10    5    6       1
    11    5   13       1
    12    6   14       1
    13    7    8       1
    14    7    9      am
    15    7   15       2
    16   10   37       1
    17   16   17       1
    18   16   21       1
    19   16   24       1
    20   17   18       1
    21   17   22       2
    22   18   19       1
    23   19   20       1
    24   19   23       2
    25   20   21       2
    26   24   25       1
    27   24   29       1
    28   25   26       1
    29   25   27       1
    30   27   28       1
    31   27   30       1
    32   28   29       1
    33   28   31       1
    34   31   32       1
    35   32   33       1
    36   33   34      ar
    37   33   35      ar
    38   33   36       1
    39   36   37       1
    40   37   38      ar
    41   37   39      ar
    42    1   40       1
    43    2   41       1
    44    3   42       1
    45    4   43       1
    46    5   44       1
    47    6   45       1
    48    6   46       1
    49    8   47       1
    50    8   48       1
    51    8   49       1
    52    9   50       1
    53   11   51       1
    54   12   52       1
    55   14   53       1
    56   18   54       1
    57   20   55       1
    58   21   56       1
    59   24   57       1
    60   25   58       1
    61   26   59       1
    62   27   60       1
    63   28   61       1
    64   30   62       1
    65   31   63       1
    66   31   64       1
@<TRIPOS>SUBSTRUCTURE
     1 UD1501      1 GROUP             4 D     UD1     0 **** UD1 D 501
