@<TRIPOS>MOLECULE
2y5h_Y5H_1_ligand
   60    64     1     0     0
SMALL
NO_CHARGES


@<TRIPOS>ATOM
     1 CL1         -0.6030     6.0040    27.7140 Cl           1 Y5H1244   0.0000
     2 C25         -1.4130     7.5200    27.3830 C.2          1 Y5H1244   0.0000
     3 C24         -2.4440     8.0890    28.0850 C.2          1 Y5H1244   0.0000
     4 C22         -2.8590     9.2980    27.4800 C.2          1 Y5H1244   0.0000
     5 S1          -0.8570     8.4830    26.0440 S.3          1 Y5H1244   0.0000
     6 C20         -2.0920     9.6550    26.3770 C.2          1 Y5H1244   0.0000
     7 C17         -2.3260    10.7580    25.4570 C.2          1 Y5H1244   0.0000
     8 N16         -1.7370    10.9830    24.3000 N.2          1 Y5H1244   0.0000
     9 O10         -3.4170    11.5320    25.6860 O.2          1 Y5H1244   0.0000
    10 C9          -3.4240    12.3800    24.5900 C.2          1 Y5H1244   0.0000
    11 C4          -2.4210    12.0540    23.7710 C.2          1 Y5H1244   0.0000
    12 C1          -2.0780    12.6960    22.4510 C.3          1 Y5H1244   0.0000
    13 N3          -3.0750    13.7060    22.0080 N.4          1 Y5H1244   1.0000
    14 C7          -2.7850    13.8590    20.5720 C.3          1 Y5H1244   0.0000
    15 C14         -1.5690    14.8000    20.5060 C.3          1 Y5H1244   0.0000
    16 C15         -1.7360    15.6830    21.7540 C.3          1 Y5H1244   0.0000
    17 C8          -2.8550    15.0490    22.6020 C.3          1 Y5H1244   0.0000
    18 C5          -2.5240    12.4580    20.0290 C.3          1 Y5H1244   0.0000
    19 C2          -2.1300    11.6450    21.2910 C.3          1 Y5H1244   0.0000
    20 C6          -3.2340    10.6000    21.3730 C.2          1 Y5H1244   0.0000
    21 O13         -3.3550     9.6930    22.1790 O.2          1 Y5H1244   0.0000
    22 C11         -3.7950    11.8350    19.5110 C.2          1 Y5H1244   0.0000
    23 O18         -4.4580    12.1260    18.5150 O.2          1 Y5H1244   0.0000
    24 N12         -4.1980    10.7940    20.3700 N.am         1 Y5H1244   0.0000
    25 C19         -5.3870     9.9430    20.2030 C.3          1 Y5H1244   0.0000
    26 C21         -5.1230     8.8510    19.1570 C.3          1 Y5H1244   0.0000
    27 C23         -6.3750     7.9540    19.2090 C.3          1 Y5H1244   0.0000
    28 N29         -6.3660     6.8300    18.1920 N.4          1 Y5H1244   1.0000
    29 C32         -6.3170     7.3980    16.8020 C.3          1 Y5H1244   0.0000
    30 C31         -7.6960     6.1270    18.3350 C.3          1 Y5H1244   0.0000
    31 C30         -5.2350     5.8770    18.3810 C.3          1 Y5H1244   0.0000
    32 H1          -2.8482     7.7013    28.9134 H            1 Y5H1244   0.0000
    33 H2          -3.6287     9.8427    27.8130 H            1 Y5H1244   0.0000
    34 H3          -4.0782    13.1206    24.4364 H            1 Y5H1244   0.0000
    35 H4          -1.1689    13.1099    22.4975 H            1 Y5H1244   0.0000
    36 H5          -3.5666    14.2710    20.1036 H            1 Y5H1244   0.0000
    37 H6          -1.5878    15.3515    19.6720 H            1 Y5H1244   0.0000
    38 H7          -0.7137    14.2832    20.5448 H            1 Y5H1244   0.0000
    39 H8          -1.9913    16.6121    21.4866 H            1 Y5H1244   0.0000
    40 H9          -0.8824    15.7085    22.2743 H            1 Y5H1244   0.0000
    41 H10         -2.5692    14.9682    23.5569 H            1 Y5H1244   0.0000
    42 H11         -3.6895    15.5975    22.5491 H            1 Y5H1244   0.0000
    43 H12         -1.7986    12.4536    19.3406 H            1 Y5H1244   0.0000
    44 H13         -1.2384    11.2093    21.1676 H            1 Y5H1244   0.0000
    45 H14         -6.1562    10.5072    19.9029 H            1 Y5H1244   0.0000
    46 H15         -5.6100     9.5136    21.0781 H            1 Y5H1244   0.0000
    47 H16         -4.3037     8.3279    19.3916 H            1 Y5H1244   0.0000
    48 H17         -5.0134     9.2521    18.2476 H            1 Y5H1244   0.0000
    49 H18         -7.1788     8.5247    19.0408 H            1 Y5H1244   0.0000
    50 H19         -6.4369     7.5519    20.1225 H            1 Y5H1244   0.0000
    51 H20         -6.3113     6.6513    16.1368 H            1 Y5H1244   0.0000
    52 H21         -7.1196     7.9746    16.6490 H            1 Y5H1244   0.0000
    53 H22         -5.4875     7.9461    16.6949 H            1 Y5H1244   0.0000
    54 H23         -7.7450     5.3706    17.6827 H            1 Y5H1244   0.0000
    55 H24         -7.7868     5.7714    19.2652 H            1 Y5H1244   0.0000
    56 H25         -8.4363     6.7738    18.1517 H            1 Y5H1244   0.0000
    57 H26         -5.2821     5.1614    17.6841 H            1 Y5H1244   0.0000
    58 H27         -4.3679     6.3679    18.2967 H            1 Y5H1244   0.0000
    59 H28         -5.2965     5.4626    19.2890 H            1 Y5H1244   0.0000
    60 H29         -4.0106    13.3876    22.1603 H            1 Y5H1244   0.0000
@<TRIPOS>BOND
     1    1    2       1
     2    2    3       2
     3    2    5       1
     4    3    4       1
     5    4    6       2
     6    5    6       1
     7    6    7       1
     8    7    8       2
     9    7    9       1
    10    8   11       1
    11    9   10       1
    12   10   11       2
    13   11   12       1
    14   12   13       1
    15   12   19       1
    16   13   14       1
    17   13   17       1
    18   14   15       1
    19   14   18       1
    20   15   16       1
    21   16   17       1
    22   18   19       1
    23   18   22       1
    24   19   20       1
    25   20   21       2
    26   20   24      am
    27   22   23       2
    28   22   24      am
    29   24   25       1
    30   25   26       1
    31   26   27       1
    32   27   28       1
    33   28   29       1
    34   28   30       1
    35   28   31       1
    36    3   32       1
    37    4   33       1
    38   10   34       1
    39   12   35       1
    40   14   36       1
    41   15   37       1
    42   15   38       1
    43   16   39       1
    44   16   40       1
    45   17   41       1
    46   17   42       1
    47   18   43       1
    48   19   44       1
    49   25   45       1
    50   25   46       1
    51   26   47       1
    52   26   48       1
    53   27   49       1
    54   27   50       1
    55   29   51       1
    56   29   52       1
    57   29   53       1
    58   30   54       1
    59   30   55       1
    60   30   56       1
    61   31   57       1
    62   31   58       1
    63   31   59       1
    64   13   60       1
@<TRIPOS>SUBSTRUCTURE
     1 Y5H1244     1 GROUP             4 A     Y5H     0 **** Y5H A1244
