@<TRIPOS>MOLECULE
1z1h_HBB_1_ligand
   83    85     1     0     0
SMALL
NO_CHARGES


@<TRIPOS>ATOM
     1 C1           5.6690    -0.2380    14.3420 C.3          1 HBB201   0.0000
     2 C2           7.0830     0.3740    14.2550 C.3          1 HBB201   0.0000
     3 C3           7.3480     1.0860    12.9450 C.ar         1 HBB201   0.0000
     4 C7           7.7410     1.0220    10.5540 C.ar         1 HBB201   0.0000
     5 C8           7.6060     0.3700    11.7680 C.ar         1 HBB201   0.0000
     6 C10          6.3250     3.0840     8.7760 C.3          1 HBB201   0.0000
     7 C11          5.4980     4.2530     9.3600 C.3          1 HBB201   0.0000
     8 C12          4.0010     3.9610     9.4690 C.3          1 HBB201   0.0000
     9 C13          3.5620     3.4240    10.8200 C.2          1 HBB201   0.0000
    10 C16          2.9730     1.4640    12.1810 C.3          1 HBB201   0.0000
    11 C19          0.5440     2.0780    11.8760 C.3          1 HBB201   0.0000
    12 C20          3.9260     0.3660    12.6940 C.2          1 HBB201   0.0000
    13 N26          6.3700    -2.8180    15.8170 N.3          1 HBB201   0.0000
    14 C27          5.7070    -3.5950    16.8920 C.3          1 HBB201   0.0000
    15 C30          2.9350    -2.8440    16.3270 C.3          1 HBB201   0.0000
    16 C31          2.5690    -5.0460    15.2300 C.3          1 HBB201   0.0000
    17 C35          8.5290    -4.5040    15.7960 C.ar         1 HBB201   0.0000
    18 C4           7.2450     2.4740    12.8640 C.ar         1 HBB201   0.0000
    19 C5           7.3790     3.1270    11.6580 C.ar         1 HBB201   0.0000
    20 C6           7.6180     2.3990    10.5040 C.ar         1 HBB201   0.0000
    21 O9           7.6630     3.0550     9.2910 O.3          1 HBB201   0.0000
    22 O14          3.4350     4.1870    11.7850 O.2          1 HBB201   0.0000
    23 N15          3.3970     2.1030    10.9100 N.am         1 HBB201   0.0000
    24 C17          1.5280     0.9200    12.0730 C.3          1 HBB201   0.0000
    25 C18          1.1470     0.1320    13.3060 C.3          1 HBB201   0.0000
    26 O21          3.9570    -0.7550    12.1550 O.2          1 HBB201   0.0000
    27 N22          4.6820     0.6980    13.7470 N.am         1 HBB201   0.0000
    28 C23          5.3120    -0.5480    15.8090 C.3          1 HBB201   0.0000
    29 O24          5.2570     0.6650    16.5620 O.3          1 HBB201   0.0000
    30 C25          6.3430    -1.4910    16.4480 C.3          1 HBB201   0.0000
    31 C28          4.7980    -4.5350    16.1180 C.3          1 HBB201   0.0000
    32 C29          3.3010    -4.3200    16.3450 C.3          1 HBB201   0.0000
    33 S32          7.5240    -3.5430    14.8840 S.o2         1 HBB201   0.0000
    34 O33          8.3440    -2.5090    14.2480 O.2          1 HBB201   0.0000
    35 O34          6.8690    -4.3280    13.8480 O.2          1 HBB201   0.0000
    36 C36          9.6660    -3.9610    16.4060 C.ar         1 HBB201   0.0000
    37 C37         10.5150    -4.7580    17.1720 C.ar         1 HBB201   0.0000
    38 C38         10.2400    -6.1120    17.3280 C.ar         1 HBB201   0.0000
    39 C39          9.1120    -6.6680    16.7230 C.ar         1 HBB201   0.0000
    40 C40          8.2660    -5.8630    15.9600 C.ar         1 HBB201   0.0000
    41 H1           5.6562    -1.0916    13.8213 H            1 HBB201   0.0000
    42 H2           7.7537    -0.3605    14.3584 H            1 HBB201   0.0000
    43 H3           7.1908     1.0312    15.0009 H            1 HBB201   0.0000
    44 H4           7.9259     0.5018     9.7202 H            1 HBB201   0.0000
    45 H5           7.6938    -0.6254    11.8056 H            1 HBB201   0.0000
    46 H6           6.3650     3.1833     7.7817 H            1 HBB201   0.0000
    47 H7           5.8725     2.2227     9.0071 H            1 HBB201   0.0000
    48 H8           5.6208     5.0509     8.7698 H            1 HBB201   0.0000
    49 H9           5.8459     4.4583    10.2748 H            1 HBB201   0.0000
    50 H10          3.7628     3.2850     8.7716 H            1 HBB201   0.0000
    51 H11          3.5033     4.8104     9.2936 H            1 HBB201   0.0000
    52 H12          2.9599     2.1831    12.8758 H            1 HBB201   0.0000
    53 H13         -0.3861     1.7171    11.8074 H            1 HBB201   0.0000
    54 H14          0.6028     2.7017    12.6555 H            1 HBB201   0.0000
    55 H15          0.7731     2.5709    11.0366 H            1 HBB201   0.0000
    56 H16          5.1779    -2.9973    17.4943 H            1 HBB201   0.0000
    57 H17          6.3760    -4.1051    17.4325 H            1 HBB201   0.0000
    58 H18          3.4197    -2.3714    17.0630 H            1 HBB201   0.0000
    59 H19          3.1957    -2.4466    15.4472 H            1 HBB201   0.0000
    60 H20          1.9489    -2.7435    16.4590 H            1 HBB201   0.0000
    61 H21          2.8134    -6.0155    15.2468 H            1 HBB201   0.0000
    62 H22          1.5823    -4.9487    15.3604 H            1 HBB201   0.0000
    63 H23          2.8292    -4.6519    14.3486 H            1 HBB201   0.0000
    64 H24          7.0712     3.0039    13.6940 H            1 HBB201   0.0000
    65 H25          7.3039     4.1233    11.6160 H            1 HBB201   0.0000
    66 H26          3.5622     1.5323    10.1056 H            1 HBB201   0.0000
    67 H27          1.4730     0.3156    11.2782 H            1 HBB201   0.0000
    68 H28          0.2111    -0.2066    13.2092 H            1 HBB201   0.0000
    69 H29          1.7718    -0.6413    13.4136 H            1 HBB201   0.0000
    70 H30          1.2062     0.7228    14.1106 H            1 HBB201   0.0000
    71 H31          4.5785     1.6086    14.1472 H            1 HBB201   0.0000
    72 H32          4.4134    -0.9860    15.8367 H            1 HBB201   0.0000
    73 H33          6.1605     0.8624    16.9426 H            1 HBB201   0.0000
    74 H34          7.2497    -1.0781    16.3623 H            1 HBB201   0.0000
    75 H35          6.1174    -1.6021    17.4159 H            1 HBB201   0.0000
    76 H36          5.0208    -5.4723    16.3859 H            1 HBB201   0.0000
    77 H37          4.9844    -4.4137    15.1430 H            1 HBB201   0.0000
    78 H38          3.0393    -4.7155    17.2254 H            1 HBB201   0.0000
    79 H39          9.8717    -2.9892    16.2907 H            1 HBB201   0.0000
    80 H40         11.3203    -4.3568    17.6085 H            1 HBB201   0.0000
    81 H41         10.8500    -6.6869    17.8733 H            1 HBB201   0.0000
    82 H42          8.9107    -7.6410    16.8362 H            1 HBB201   0.0000
    83 H43          7.4607    -6.2660    15.5252 H            1 HBB201   0.0000
@<TRIPOS>BOND
     1    1    2       1
     2    1   27       1
     3    1   28       1
     4    2    3       1
     5    3    5      ar
     6    3   18      ar
     7    4    5      ar
     8    4   20      ar
     9    6    7       1
    10    6   21       1
    11    7    8       1
    12    8    9       1
    13    9   22       2
    14    9   23      am
    15   10   12       1
    16   10   23       1
    17   10   24       1
    18   11   24       1
    19   12   26       2
    20   12   27      am
    21   13   14       1
    22   13   30       1
    23   13   33       1
    24   14   31       1
    25   15   32       1
    26   16   32       1
    27   17   33       1
    28   17   36      ar
    29   17   40      ar
    30   18   19      ar
    31   19   20      ar
    32   20   21       1
    33   24   25       1
    34   28   29       1
    35   28   30       1
    36   31   32       1
    37   33   34       2
    38   33   35       2
    39   36   37      ar
    40   37   38      ar
    41   38   39      ar
    42   39   40      ar
    43    1   41       1
    44    2   42       1
    45    2   43       1
    46    4   44       1
    47    5   45       1
    48    6   46       1
    49    6   47       1
    50    7   48       1
    51    7   49       1
    52    8   50       1
    53    8   51       1
    54   10   52       1
    55   11   53       1
    56   11   54       1
    57   11   55       1
    58   14   56       1
    59   14   57       1
    60   15   58       1
    61   15   59       1
    62   15   60       1
    63   16   61       1
    64   16   62       1
    65   16   63       1
    66   18   64       1
    67   19   65       1
    68   23   66       1
    69   24   67       1
    70   25   68       1
    71   25   69       1
    72   25   70       1
    73   27   71       1
    74   28   72       1
    75   29   73       1
    76   30   74       1
    77   30   75       1
    78   31   76       1
    79   31   77       1
    80   32   78       1
    81   36   79       1
    82   37   80       1
    83   38   81       1
    84   39   82       1
    85   40   83       1
@<TRIPOS>SUBSTRUCTURE
     1 HBB201      1 GROUP             4 A     HBB     0 **** HBB A 201
