@<TRIPOS>MOLECULE
2zbw_FAD_2_ligand
   84    89     1     0     0
SMALL
NO_CHARGES


@<TRIPOS>ATOM
     1 PA          11.7630    25.6240    77.4890 P.3          1 FAD1001   0.0000
     2 O1A         12.9340    25.0620    78.2000 O.co2        1 FAD1001   0.0000
     3 O2A         11.7360    27.0440    77.0580 O.co2        1 FAD1001  -1.0000
     4 O5B         11.5210    24.6620    76.2570 O.3          1 FAD1001   0.0000
     5 C5B         10.4540    24.8590    75.3010 C.3          1 FAD1001   0.0000
     6 C4B         10.8660    24.0780    74.0950 C.3          1 FAD1001   0.0000
     7 O4B          9.7410    23.8590    73.1960 O.3          1 FAD1001   0.0000
     8 C3B         12.0260    24.6860    73.2640 C.3          1 FAD1001   0.0000
     9 O3B         13.1430    23.8480    73.0810 O.3          1 FAD1001   0.0000
    10 C2B         11.3490    25.1160    71.9650 C.3          1 FAD1001   0.0000
    11 O2B         12.1470    25.1280    70.7980 O.3          1 FAD1001   0.0000
    12 C1B         10.1550    24.1700    71.8660 C.3          1 FAD1001   0.0000
    13 N9A          9.0420    24.6720    71.0550 N.pl3        1 FAD1001   0.0000
    14 C8A          8.3460    25.8480    71.1480 C.2          1 FAD1001   0.0000
    15 N7A          7.4040    25.9910    70.2280 N.2          1 FAD1001   0.0000
    16 C5A          7.4880    24.8250    69.4790 C.ar         1 FAD1001   0.0000
    17 C6A          6.7530    24.3440    68.3170 C.ar         1 FAD1001   0.0000
    18 N6A          5.7750    25.0550    67.7370 N.pl3        1 FAD1001   0.0000
    19 N1A          7.0840    23.1260    67.8080 N.ar         1 FAD1001   0.0000
    20 C2A          8.0850    22.4110    68.4030 C.ar         1 FAD1001   0.0000
    21 N3A          8.8350    22.7580    69.4740 N.ar         1 FAD1001   0.0000
    22 C4A          8.4650    24.0190    69.9700 C.ar         1 FAD1001   0.0000
    23 N1          14.5000    28.7850    86.0400 N.2          1 FAD1001   0.0000
    24 C2          14.6830    28.2920    87.2940 C.2          1 FAD1001   0.0000
    25 O2          13.7870    27.6620    87.9080 O.2          1 FAD1001   0.0000
    26 N3          15.9100    28.4880    87.9340 N.pl3        1 FAD1001   0.0000
    27 C4          17.0070    29.1730    87.3720 C.2          1 FAD1001   0.0000
    28 O4          18.0640    29.2920    88.0310 O.2          1 FAD1001   0.0000
    29 C4X         16.8010    29.6810    86.0580 C.2          1 FAD1001   0.0000
    30 N5          17.8470    30.3790    85.4010 N.2          1 FAD1001   0.0000
    31 C5X         17.6180    30.8560    84.1050 C.ar         1 FAD1001   0.0000
    32 C6          18.6680    31.5520    83.4220 C.ar         1 FAD1001   0.0000
    33 C7          18.5110    32.0410    82.1360 C.ar         1 FAD1001   0.0000
    34 C7M         19.7040    32.7670    81.5020 C.3          1 FAD1001   0.0000
    35 C8          17.2810    31.8590    81.4480 C.ar         1 FAD1001   0.0000
    36 C8M         17.0390    32.3640    80.0350 C.3          1 FAD1001   0.0000
    37 C9          16.2010    31.1580    82.1210 C.ar         1 FAD1001   0.0000
    38 C9A         16.3450    30.6570    83.4280 C.ar         1 FAD1001   0.0000
    39 N10         15.2940    29.9410    84.1390 N.pl3        1 FAD1001   0.0000
    40 C10         15.5320    29.4640    85.4290 C.2          1 FAD1001   0.0000
    41 C1'         13.9660    29.6750    83.5490 C.3          1 FAD1001   0.0000
    42 C2'         13.8840    28.2600    82.9600 C.3          1 FAD1001   0.0000
    43 O2'         14.8930    28.1430    81.9510 O.3          1 FAD1001   0.0000
    44 C3'         12.4950    28.0100    82.3930 C.3          1 FAD1001   0.0000
    45 O3'         11.5520    28.1490    83.4620 O.3          1 FAD1001   0.0000
    46 C4'         12.3830    26.5860    81.8010 C.3          1 FAD1001   0.0000
    47 O4'         13.3300    26.4320    80.7340 O.3          1 FAD1001   0.0000
    48 C5'         11.0110    26.3350    81.2590 C.3          1 FAD1001   0.0000
    49 O5'         10.9990    24.9930    80.7630 O.3          1 FAD1001   0.0000
    50 P           10.0170    24.5540    79.6200 P.3          1 FAD1001   0.0000
    51 O1P         10.2540    23.1320    79.3930 O.co2        1 FAD1001   0.0000
    52 O2P          8.6420    24.9900    79.9890 O.co2        1 FAD1001  -1.0000
    53 O3P         10.4180    25.3350    78.2960 O.3          1 FAD1001   0.0000
    54 H5B1        10.3583    25.8286    75.0760 H            1 FAD1001   0.0000
    55 H5B2         9.5885    24.5141    75.6643 H            1 FAD1001   0.0000
    56 H4B         11.1693    23.1799    74.4135 H            1 FAD1001   0.0000
    57 H3B         12.3377    25.5120    73.7337 H            1 FAD1001   0.0000
    58 H5          12.8605    23.0153    72.6048 H            1 FAD1001   0.0000
    59 H2B         10.9934    26.0409    72.0994 H            1 FAD1001   0.0000
    60 H7          12.0967    24.2351    70.3506 H            1 FAD1001   0.0000
    61 H1B         10.4765    23.3221    71.4445 H            1 FAD1001   0.0000
    62 H8A          8.5325    26.5372    71.8481 H            1 FAD1001   0.0000
    63 H6A1         5.2950    24.6879    66.9402 H            1 FAD1001   0.0000
    64 H6A2         5.5257    25.9523    68.1013 H            1 FAD1001   0.0000
    65 H2A          8.2884    21.5205    67.9961 H            1 FAD1001   0.0000
    66 H13         16.0176    28.1160    88.8560 H            1 FAD1001   0.0000
    67 H14         19.5417    31.6889    83.8888 H            1 FAD1001   0.0000
    68 H7M1        19.4598    33.0673    80.5800 H            1 FAD1001   0.0000
    69 H7M2        19.9446    33.5621    82.0588 H            1 FAD1001   0.0000
    70 H7M3        20.4855    32.1450    81.4539 H            1 FAD1001   0.0000
    71 H8M1        16.1100    32.1269    79.7508 H            1 FAD1001   0.0000
    72 H8M2        17.1512    33.3574    80.0123 H            1 FAD1001   0.0000
    73 H8M3        17.6966    31.9399    79.4123 H            1 FAD1001   0.0000
    74 H21         15.3324    31.0281    81.6428 H            1 FAD1001   0.0000
    75 H1'1        13.7946    30.3398    82.8219 H            1 FAD1001   0.0000
    76 H1'2        13.2695    29.7716    84.2600 H            1 FAD1001   0.0000
    77 H2'         14.0664    27.5940    83.6833 H            1 FAD1001   0.0000
    78 H25         14.5893    27.4988    81.2490 H            1 FAD1001   0.0000
    79 H3'         12.2971    28.6848    81.6820 H            1 FAD1001   0.0000
    80 H27         10.6796    28.4740    83.0968 H            1 FAD1001   0.0000
    81 H4'         12.5817    25.9160    82.5163 H            1 FAD1001   0.0000
    82 H29         12.8449    26.2191    79.8859 H            1 FAD1001   0.0000
    83 H5'1        10.8109    26.9770    80.5188 H            1 FAD1001   0.0000
    84 H5'2        10.3304    26.4397    81.9841 H            1 FAD1001   0.0000
@<TRIPOS>BOND
     1    1    2      ar
     2    1    3      ar
     3    1    4       1
     4    1   53       1
     5    4    5       1
     6    5    6       1
     7    6    7       1
     8    6    8       1
     9    7   12       1
    10    8    9       1
    11    8   10       1
    12   10   11       1
    13   10   12       1
    14   12   13       1
    15   13   14       1
    16   13   22       1
    17   14   15       2
    18   15   16       1
    19   16   17      ar
    20   16   22      ar
    21   17   18       1
    22   17   19      ar
    23   19   20      ar
    24   20   21      ar
    25   21   22      ar
    26   23   24       1
    27   23   40       2
    28   24   25       2
    29   24   26       1
    30   26   27       1
    31   27   28       2
    32   27   29       1
    33   29   30       2
    34   29   40       1
    35   30   31       1
    36   31   32      ar
    37   31   38      ar
    38   32   33      ar
    39   33   34       1
    40   33   35      ar
    41   35   36       1
    42   35   37      ar
    43   37   38      ar
    44   38   39       1
    45   39   40       1
    46   39   41       1
    47   41   42       1
    48   42   43       1
    49   42   44       1
    50   44   45       1
    51   44   46       1
    52   46   47       1
    53   46   48       1
    54   48   49       1
    55   49   50       1
    56   50   51      ar
    57   50   52      ar
    58   50   53       1
    59   48   84       1
    60    5   54       1
    61    5   55       1
    62    6   56       1
    63    8   57       1
    64    9   58       1
    65   10   59       1
    66   11   60       1
    67   12   61       1
    68   14   62       1
    69   18   63       1
    70   18   64       1
    71   20   65       1
    72   26   66       1
    73   32   67       1
    74   34   68       1
    75   34   69       1
    76   34   70       1
    77   36   71       1
    78   36   72       1
    79   36   73       1
    80   37   74       1
    81   41   75       1
    82   41   76       1
    83   42   77       1
    84   43   78       1
    85   44   79       1
    86   45   80       1
    87   46   81       1
    88   47   82       1
    89   48   83       1
@<TRIPOS>SUBSTRUCTURE
     1 FAD1001     1 GROUP             4 B     FAD     0 **** FAD B1001
