@<TRIPOS>MOLECULE
2xw7_NDP_2_ligand
   73    77     1     0     0
SMALL
NO_CHARGES


@<TRIPOS>ATOM
     1 PA          12.9430   -28.2560    49.5630 P.3          1 NDP1173   0.0000
     2 O1A         13.4840   -27.0140    50.2040 O.co2        1 NDP1173   0.0000
     3 O2A         11.5120   -28.2710    49.1980 O.co2        1 NDP1173  -1.0000
     4 O5B         13.2190   -29.5310    50.5030 O.3          1 NDP1173   0.0000
     5 C5B         12.8640   -30.8530    50.0800 C.3          1 NDP1173   0.0000
     6 C4B         13.0890   -31.7330    51.3010 C.3          1 NDP1173   0.0000
     7 O4B         12.2930   -31.3410    52.4040 O.3          1 NDP1173   0.0000
     8 C3B         12.7330   -33.1820    51.0440 C.3          1 NDP1173   0.0000
     9 O3B         13.8070   -33.8170    50.4000 O.3          1 NDP1173   0.0000
    10 O1X         13.0990   -35.9830    54.3360 O.co2        1 NDP1173   0.0000
    11 N9A         10.2960   -32.5390    52.9050 N.pl3        1 NDP1173   0.0000
    12 C8A          9.5320   -32.1200    51.8480 C.2          1 NDP1173   0.0000
    13 N7A          8.2310   -32.3730    52.1360 N.2          1 NDP1173   0.0000
    14 C5A          8.1530   -32.9620    53.3770 C.ar         1 NDP1173   0.0000
    15 C6A          7.0800   -33.4190    54.1630 C.ar         1 NDP1173   0.0000
    16 N6A          5.8130   -33.1700    53.8460 N.pl3        1 NDP1173   0.0000
    17 N1A          7.3460   -33.9500    55.3950 N.ar         1 NDP1173   0.0000
    18 C2A          8.6550   -34.0530    55.8500 C.ar         1 NDP1173   0.0000
    19 N3A          9.7130   -33.6250    55.0650 N.ar         1 NDP1173   0.0000
    20 C4A          9.4560   -33.0650    53.8580 C.ar         1 NDP1173   0.0000
    21 O3          13.8820   -28.7450    48.3530 O.3          1 NDP1173   0.0000
    22 PN          14.2820   -28.3910    46.8450 P.3          1 NDP1173   0.0000
    23 O1N         15.4490   -29.2980    46.6130 O.co2        1 NDP1173   0.0000
    24 O2N         13.1250   -28.4050    45.9090 O.co2        1 NDP1173  -1.0000
    25 O5D         14.7840   -26.8980    46.8900 O.3          1 NDP1173   0.0000
    26 C5D         15.7660   -26.6470    47.8420 C.3          1 NDP1173   0.0000
    27 C4D         16.6770   -25.6430    47.2190 C.3          1 NDP1173   0.0000
    28 O4D         16.0490   -24.3710    47.2320 O.3          1 NDP1173   0.0000
    29 C3D         17.9510   -25.5950    48.0200 C.3          1 NDP1173   0.0000
    30 O3D         18.8990   -26.3690    47.3240 O.3          1 NDP1173   0.0000
    31 C2D         18.2550   -24.1070    48.0630 C.3          1 NDP1173   0.0000
    32 O2D         19.5000   -23.9190    47.4260 O.3          1 NDP1173   0.0000
    33 C1D         17.0750   -23.3990    47.3420 C.3          1 NDP1173   0.0000
    34 N1N         16.4980   -22.1280    47.9050 N.ar         1 NDP1173   1.0000
    35 C2N         15.4920   -21.5110    47.1880 C.ar         1 NDP1173   0.0000
    36 C3N         15.1390   -20.1680    47.3850 C.ar         1 NDP1173   0.0000
    37 C7N         14.0460   -19.5700    46.5640 C.2          1 NDP1173   0.0000
    38 O7N         14.3190   -19.1030    45.2600 O.2          1 NDP1173   0.0000
    39 N7N         12.8440   -19.5020    47.1120 N.am         1 NDP1173   0.0000
    40 C4N         15.8310   -19.2880    48.4060 C.ar         1 NDP1173   0.0000
    41 C5N         16.8970   -20.0450    49.1410 C.ar         1 NDP1173   0.0000
    42 C6N         17.1670   -21.3920    48.8590 C.ar         1 NDP1173   0.0000
    43 P2B         13.9890   -34.7620    54.3550 P.3          1 NDP1173   0.0000
    44 O2B         13.7030   -33.7540    53.1460 O.3          1 NDP1173   0.0000
    45 O2X         13.7400   -34.0550    55.6630 O.co2        1 NDP1173  -1.0000
    46 O3X         15.4420   -35.0750    54.3160 O.co2        1 NDP1173  -1.0000
    47 C2B         12.4740   -33.6820    52.4720 C.3          1 NDP1173   0.0000
    48 C1B         11.7560   -32.4720    53.0520 C.3          1 NDP1173   0.0000
    49 H5B1        13.4466   -31.1477    49.3226 H            1 NDP1173   0.0000
    50 H5B2        11.9058   -30.8853    49.7956 H            1 NDP1173   0.0000
    51 H4B         14.0524   -31.6795    51.5637 H            1 NDP1173   0.0000
    52 H3B         11.9021   -33.2480    50.4915 H            1 NDP1173   0.0000
    53 H5          13.5743   -34.7744    50.2291 H            1 NDP1173   0.0000
    54 H8A          9.8748   -31.6996    51.0079 H            1 NDP1173   0.0000
    55 H6A1         5.0755   -33.5111    54.4288 H            1 NDP1173   0.0000
    56 H6A2         5.5976   -32.6416    53.0248 H            1 NDP1173   0.0000
    57 H2A          8.8352   -34.4404    56.7541 H            1 NDP1173   0.0000
    58 H5D1        16.2657   -27.4857    48.0583 H            1 NDP1173   0.0000
    59 H5D2        15.3574   -26.2778    48.6767 H            1 NDP1173   0.0000
    60 H4D         16.8801   -25.9099    46.2769 H            1 NDP1173   0.0000
    61 H3D         17.8055   -25.9550    48.9415 H            1 NDP1173   0.0000
    62 H14         19.3960   -25.7875    46.6799 H            1 NDP1173   0.0000
    63 H2D         18.3084   -23.7978    49.0125 H            1 NDP1173   0.0000
    64 H16         19.7354   -22.9471    47.4345 H            1 NDP1173   0.0000
    65 H1D         17.3824   -23.1931    46.4129 H            1 NDP1173   0.0000
    66 H2N         14.9958   -22.0425    46.5015 H            1 NDP1173   0.0000
    67 H7N1        12.0817   -19.1087    46.5980 H            1 NDP1173   0.0000
    68 H7N2        12.6976   -19.8439    48.0403 H            1 NDP1173   0.0000
    69 H4N         15.6062   -18.3273    48.5687 H            1 NDP1173   0.0000
    70 H5N         17.4276   -19.5784    49.8486 H            1 NDP1173   0.0000
    71 H6N         17.8886   -21.8459    49.3818 H            1 NDP1173   0.0000
    72 H2B         11.9404   -34.5267    52.5137 H            1 NDP1173   0.0000
    73 H1B         11.9736   -32.4117    54.0262 H            1 NDP1173   0.0000
@<TRIPOS>BOND
     1    1    2      ar
     2    1    3      ar
     3    1    4       1
     4    1   21       1
     5    4    5       1
     6    5    6       1
     7    6    7       1
     8    6    8       1
     9    7   48       1
    10    8    9       1
    11    8   47       1
    12   10   43      ar
    13   11   12       1
    14   11   20       1
    15   11   48       1
    16   12   13       2
    17   13   14       1
    18   14   15      ar
    19   14   20      ar
    20   15   16       1
    21   15   17      ar
    22   17   18      ar
    23   18   19      ar
    24   19   20      ar
    25   21   22       1
    26   22   23      ar
    27   22   24      ar
    28   22   25       1
    29   25   26       1
    30   26   27       1
    31   27   28       1
    32   27   29       1
    33   28   33       1
    34   29   30       1
    35   29   31       1
    36   31   32       1
    37   31   33       1
    38   33   34       1
    39   34   35      ar
    40   34   42      ar
    41   35   36      ar
    42   36   37       1
    43   36   40      ar
    44   37   38       2
    45   37   39      am
    46   40   41      ar
    47   41   42      ar
    48   43   44       1
    49   43   45      ar
    50   43   46      ar
    51   44   47       1
    52   47   48       1
    53   48   73       1
    54    5   49       1
    55    5   50       1
    56    6   51       1
    57    8   52       1
    58    9   53       1
    59   47   72       1
    60   12   54       1
    61   16   55       1
    62   16   56       1
    63   18   57       1
    64   42   71       1
    65   26   58       1
    66   26   59       1
    67   27   60       1
    68   29   61       1
    69   30   62       1
    70   31   63       1
    71   32   64       1
    72   33   65       1
    73   35   66       1
    74   39   67       1
    75   39   68       1
    76   40   69       1
    77   41   70       1
@<TRIPOS>SUBSTRUCTURE
     1 NDP1173     1 GROUP             4 B     NDP     0 **** NDP B1173
