@<TRIPOS>MOLECULE
3m6r_BB2_1_ligand
   61    61     1     0     0
SMALL
NO_CHARGES


@<TRIPOS>ATOM
     1 C5         -14.4930     6.5380   -30.9450 C.3          1 BB2194   0.0000
     2 C3         -13.0760     6.0100   -30.3690 C.2          1 BB2194   0.0000
     3 O4         -12.9100     5.0710   -31.1580 O.2          1 BB2194   0.0000
     4 N1         -12.1660     6.2950   -29.4450 N.am         1 BB2194   0.0000
     5 O2         -11.0260     5.5230   -29.2970 O.3          1 BB2194  -1.0000
     6 C6         -15.5390     5.7470   -30.0750 C.3          1 BB2194   0.0000
     7 C12        -16.8890     6.3080   -30.6430 C.2          1 BB2194   0.0000
     8 O13        -17.0380     7.5400   -30.7230 O.2          1 BB2194   0.0000
     9 C7         -15.4020     6.1400   -28.5770 C.3          1 BB2194   0.0000
    10 C8         -16.4430     5.3020   -27.7910 C.3          1 BB2194   0.0000
    11 C9         -16.4480     5.5840   -26.3190 C.3          1 BB2194   0.0000
    12 C10        -17.3450     4.5260   -25.6810 C.3          1 BB2194   0.0000
    13 C11        -18.8040     4.9680   -25.7230 C.3          1 BB2194   0.0000
    14 N14        -17.7620     5.2940   -30.9740 N.am         1 BB2194   0.0000
    15 C15        -19.1390     5.7910   -30.6900 C.3          1 BB2194   0.0000
    16 C16        -19.8890     5.6290   -32.0890 C.3          1 BB2194   0.0000
    17 C18        -19.6120     6.8170   -33.0460 C.3          1 BB2194   0.0000
    18 C17        -19.5010     4.2950   -32.8330 C.3          1 BB2194   0.0000
    19 C19        -19.9160     4.9540   -29.6240 C.2          1 BB2194   0.0000
    20 O20        -19.4120     3.9610   -29.1460 O.2          1 BB2194   0.0000
    21 N21        -21.2540     5.7280   -29.3630 N.am         1 BB2194   0.0000
    22 C22        -22.2220     5.2020   -28.3520 C.3          1 BB2194   0.0000
    23 C23        -21.8520     7.0110   -29.8960 C.3          1 BB2194   0.0000
    24 C24        -22.7320     7.5250   -28.7400 C.3          1 BB2194   0.0000
    25 C25        -23.3980     6.2000   -28.3140 C.3          1 BB2194   0.0000
    26 C26        -22.7530     3.8120   -28.7680 C.3          1 BB2194   0.0000
    27 O27        -23.6650     3.2990   -27.7990 O.3          1 BB2194   0.0000
    28 H1         -14.5919     6.3181   -31.9155 H            1 BB2194   0.0000
    29 H2         -14.5894     7.5249   -30.8153 H            1 BB2194   0.0000
    30 H3         -12.3066     7.0822   -28.8445 H            1 BB2194   0.0000
    31 H4         -15.4618     4.7590   -30.2085 H            1 BB2194   0.0000
    32 H5         -15.5874     7.1156   -28.4596 H            1 BB2194   0.0000
    33 H6         -14.4792     5.9345   -28.2511 H            1 BB2194   0.0000
    34 H7         -16.2372     4.3329   -27.9270 H            1 BB2194   0.0000
    35 H8         -17.3522     5.5040   -28.1552 H            1 BB2194   0.0000
    36 H9         -16.8127     6.4984   -26.1432 H            1 BB2194   0.0000
    37 H10        -15.5204     5.5186   -25.9511 H            1 BB2194   0.0000
    38 H11        -17.0692     4.3910   -24.7293 H            1 BB2194   0.0000
    39 H12        -17.2470     3.6659   -26.1817 H            1 BB2194   0.0000
    40 H13        -19.3774     4.2652   -25.3020 H            1 BB2194   0.0000
    41 H14        -18.9067     5.8268   -25.2211 H            1 BB2194   0.0000
    42 H15        -19.0845     5.1018   -26.6735 H            1 BB2194   0.0000
    43 H16        -17.5179     4.3945   -31.3363 H            1 BB2194   0.0000
    44 H17        -19.1112     6.7538   -30.4214 H            1 BB2194   0.0000
    45 H18        -20.8722     5.6041   -31.9083 H            1 BB2194   0.0000
    46 H19        -20.1005     6.6727   -33.9066 H            1 BB2194   0.0000
    47 H20        -19.9266     7.6665   -32.6225 H            1 BB2194   0.0000
    48 H21        -18.6303     6.8780   -33.2262 H            1 BB2194   0.0000
    49 H22        -19.9955     4.2412   -33.7005 H            1 BB2194   0.0000
    50 H23        -18.5167     4.2858   -33.0093 H            1 BB2194   0.0000
    51 H24        -19.7446     3.5115   -32.2613 H            1 BB2194   0.0000
    52 H25        -21.7864     5.1491   -27.4534 H            1 BB2194   0.0000
    53 H26        -22.4042     6.8336   -30.7106 H            1 BB2194   0.0000
    54 H27        -21.1348     7.6719   -30.1170 H            1 BB2194   0.0000
    55 H28        -23.4041     8.1959   -29.0533 H            1 BB2194   0.0000
    56 H29        -22.1846     7.9208   -28.0026 H            1 BB2194   0.0000
    57 H30        -23.7826     6.2693   -27.3935 H            1 BB2194   0.0000
    58 H31        -24.1169     5.9348   -28.9565 H            1 BB2194   0.0000
    59 H32        -21.9821     3.1812   -28.8569 H            1 BB2194   0.0000
    60 H33        -23.2218     3.8915   -29.6477 H            1 BB2194   0.0000
    61 H34        -23.1624     2.7690   -27.1160 H            1 BB2194   0.0000
@<TRIPOS>BOND
     1    1    2       1
     2    1    6       1
     3    2    3       2
     4    2    4      am
     5    4    5       1
     6    6    7       1
     7    6    9       1
     8    7    8       2
     9    7   14      am
    10    9   10       1
    11   10   11       1
    12   11   12       1
    13   12   13       1
    14   14   15       1
    15   15   16       1
    16   15   19       1
    17   16   17       1
    18   16   18       1
    19   19   20       2
    20   19   21      am
    21   21   22       1
    22   21   23       1
    23   22   25       1
    24   22   26       1
    25   23   24       1
    26   24   25       1
    27   26   27       1
    28    1   28       1
    29    1   29       1
    30    4   30       1
    31   27   61       1
    32    6   31       1
    33    9   32       1
    34    9   33       1
    35   10   34       1
    36   10   35       1
    37   11   36       1
    38   11   37       1
    39   12   38       1
    40   12   39       1
    41   13   40       1
    42   13   41       1
    43   13   42       1
    44   14   43       1
    45   15   44       1
    46   16   45       1
    47   17   46       1
    48   17   47       1
    49   17   48       1
    50   18   49       1
    51   18   50       1
    52   18   51       1
    53   22   52       1
    54   23   53       1
    55   23   54       1
    56   24   55       1
    57   24   56       1
    58   25   57       1
    59   25   58       1
    60   26   59       1
    61   26   60       1
@<TRIPOS>SUBSTRUCTURE
     1 BB2194      1 GROUP             4 A     BB2     0 **** BB2 A 194
