@<TRIPOS>MOLECULE
1mjh_ATP_1_ligand
   43    45     1     0     0
SMALL
NO_CHARGES


@<TRIPOS>ATOM
     1 PG           7.3750    11.5920    29.4660 P.3          1 ATP2001   0.0000
     2 O1G          6.5970    10.6500    28.6970 O.co2        1 ATP2001   0.0000
     3 O2G          8.1590    12.4270    28.5610 O.co2        1 ATP2001  -1.0000
     4 O3G          6.5660    12.5210    30.2880 O.co2        1 ATP2001  -1.0000
     5 PB           9.7570    11.0220    31.1300 P.3          1 ATP2001   0.0000
     6 O1B          9.8230    10.6600    32.5730 O.co2        1 ATP2001   0.0000
     7 O2B         10.2190    12.3890    30.9300 O.co2        1 ATP2001  -1.0000
     8 O3B          8.2960    10.7920    30.5480 O.3          1 ATP2001   0.0000
     9 PA          11.3190     9.9770    28.8150 P.3          1 ATP2001   0.0000
    10 O1A         10.6890     8.8750    28.0940 O.co2        1 ATP2001   0.0000
    11 O2A         11.1090    11.2640    28.1620 O.co2        1 ATP2001  -1.0000
    12 O3A         10.6900    10.0040    30.3100 O.3          1 ATP2001   0.0000
    13 O5'         12.8390     9.8120    29.1050 O.3          1 ATP2001   0.0000
    14 C5'         13.5080     8.5100    28.8420 C.3          1 ATP2001   0.0000
    15 C4'         14.8540     8.8190    28.1900 C.3          1 ATP2001   0.0000
    16 O4'         14.5020     9.3740    26.8810 O.3          1 ATP2001   0.0000
    17 C3'         15.7030     9.9250    28.8300 C.3          1 ATP2001   0.0000
    18 O3'         16.4770     9.4050    29.9540 O.3          1 ATP2001   0.0000
    19 C2'         16.6210    10.2470    27.6100 C.3          1 ATP2001   0.0000
    20 O2'         17.6550     9.2430    27.4830 O.3          1 ATP2001   0.0000
    21 C1'         15.5840    10.1560    26.4350 C.3          1 ATP2001   0.0000
    22 N9          15.0070    11.4460    26.0910 N.pl3        1 ATP2001   0.0000
    23 C8          13.8580    12.0480    26.4920 C.2          1 ATP2001   0.0000
    24 N7          13.6220    13.2270    25.9480 N.2          1 ATP2001   0.0000
    25 C5          14.6630    13.4530    25.1780 C.ar         1 ATP2001   0.0000
    26 C6          15.0120    14.5190    24.3730 C.ar         1 ATP2001   0.0000
    27 N6          14.2180    15.6050    24.2340 N.pl3        1 ATP2001   0.0000
    28 N1          16.1630    14.4360    23.7220 N.ar         1 ATP2001   0.0000
    29 C2          17.0230    13.3540    23.7850 C.ar         1 ATP2001   0.0000
    30 N3          16.7220    12.3270    24.5570 N.ar         1 ATP2001   0.0000
    31 C4          15.5720    12.4230    25.2060 C.ar         1 ATP2001   0.0000
    32 H5'1        12.9483     7.9551    28.2265 H            1 ATP2001   0.0000
    33 H5'2        13.6481     8.0170    29.7006 H            1 ATP2001   0.0000
    34 H4'         15.3915     7.9826    28.0828 H            1 ATP2001   0.0000
    35 H3'         15.1474    10.7132    29.0948 H            1 ATP2001   0.0000
    36 H5          15.9435     9.4931    30.7952 H            1 ATP2001   0.0000
    37 H2'         17.0116    11.1649    27.6806 H            1 ATP2001   0.0000
    38 H7          18.4718     9.6549    27.0790 H            1 ATP2001   0.0000
    39 H1'         16.0062     9.7385    25.6304 H            1 ATP2001   0.0000
    40 H9          13.2352    11.6281    27.1522 H            1 ATP2001   0.0000
    41 H10         14.5019    16.3595    23.6423 H            1 ATP2001   0.0000
    42 H11         13.3470    15.6534    24.7229 H            1 ATP2001   0.0000
    43 H12         17.8672    13.3503    23.2490 H            1 ATP2001   0.0000
@<TRIPOS>BOND
     1    1    2      ar
     2    1    3      ar
     3    1    4      ar
     4    1    8       1
     5    5    6      ar
     6    5    7      ar
     7    5    8       1
     8    5   12       1
     9    9   10      ar
    10    9   11      ar
    11    9   12       1
    12    9   13       1
    13   13   14       1
    14   14   15       1
    15   15   16       1
    16   15   17       1
    17   16   21       1
    18   17   18       1
    19   17   19       1
    20   19   20       1
    21   19   21       1
    22   21   22       1
    23   22   23       1
    24   22   31       1
    25   23   24       2
    26   24   25       1
    27   25   26      ar
    28   25   31      ar
    29   26   27       1
    30   26   28      ar
    31   28   29      ar
    32   29   30      ar
    33   30   31      ar
    34   29   43       1
    35   27   42       1
    36   27   41       1
    37   23   40       1
    38   14   32       1
    39   14   33       1
    40   15   34       1
    41   17   35       1
    42   18   36       1
    43   19   37       1
    44   20   38       1
    45   21   39       1
@<TRIPOS>SUBSTRUCTURE
     1 ATP2001     1 GROUP             4 A     ATP     0 **** ATP A2001
