@<TRIPOS>MOLECULE
3wd7_COA_1_ligand
   80    82     1     0     0
SMALL
NO_CHARGES


@<TRIPOS>ATOM
     1 N1A          8.3750    35.0490   -20.5390 N.ar         1 COA401   0.0000
     2 C2A          7.8530    34.9310   -21.7480 C.ar         1 COA401   0.0000
     3 N3A          8.5230    35.2940   -22.8270 N.ar         1 COA401   0.0000
     4 C4A          9.7620    35.7940   -22.7230 C.ar         1 COA401   0.0000
     5 C5A         10.3440    35.9340   -21.4700 C.ar         1 COA401   0.0000
     6 C6A          9.6080    35.5440   -20.3590 C.ar         1 COA401   0.0000
     7 N6A         10.1090    35.6720   -19.1330 N.pl3        1 COA401   0.0000
     8 N7A         11.5620    36.4330   -21.6510 N.2          1 COA401   0.0000
     9 C8A         11.7460    36.6000   -22.9590 C.2          1 COA401   0.0000
    10 N9A         10.6530    36.2120   -23.6140 N.pl3        1 COA401   0.0000
    11 C1B         10.4620    36.2170   -25.0810 C.3          1 COA401   0.0000
    12 C2B         10.5020    37.6310   -25.6630 C.3          1 COA401   0.0000
    13 O2B          9.1970    38.2090   -25.5950 O.3          1 COA401   0.0000
    14 C3B         10.8700    37.3030   -27.1070 C.3          1 COA401   0.0000
    15 O3B          9.7440    36.7110   -27.7600 O.3          1 COA401   0.0000
    16 P3B          9.1000    37.4320   -29.0480 P.3          1 COA401   0.0000
    17 O7A         10.1970    37.3360   -30.2230 O.co2        1 COA401   0.0000
    18 O8A          7.8580    36.5030   -29.4810 O.co2        1 COA401  -1.0000
    19 O9A          8.6880    38.8250   -28.7670 O.co2        1 COA401  -1.0000
    20 C4B         11.9770    36.2860   -26.8370 C.3          1 COA401   0.0000
    21 O4B         11.4620    35.4530   -25.7840 O.3          1 COA401   0.0000
    22 C5B         13.1730    37.0360   -26.2490 C.3          1 COA401   0.0000
    23 O5B         13.6600    37.9970   -27.1880 O.3          1 COA401   0.0000
    24 P1A         14.5150    39.2510   -26.6580 P.3          1 COA401   0.0000
    25 O1A         13.8740    39.7640   -25.4260 O.co2        1 COA401   0.0000
    26 O2A         14.7020    40.1770   -27.7970 O.co2        1 COA401  -1.0000
    27 O3A         15.9300    38.5740   -26.2960 O.3          1 COA401   0.0000
    28 P2A         16.6630    38.9820   -24.9240 P.3          1 COA401   0.0000
    29 O4A         17.8220    39.8300   -25.2890 O.co2        1 COA401   0.0000
    30 O5A         15.6480    39.5370   -24.0010 O.co2        1 COA401  -1.0000
    31 O6A         17.1850    37.5710   -24.3510 O.3          1 COA401   0.0000
    32 CBP         16.7020    36.4540   -22.2210 C.3          1 COA401   0.0000
    33 CCP         16.2850    36.6900   -23.6740 C.3          1 COA401   0.0000
    34 CDP         15.7450    35.4500   -21.5770 C.3          1 COA401   0.0000
    35 CEP         18.1270    35.8950   -22.1920 C.3          1 COA401   0.0000
    36 CAP         16.6520    37.7750   -21.4500 C.3          1 COA401   0.0000
    37 OAP         15.3450    38.3390   -21.5850 O.3          1 COA401   0.0000
    38 C9P         16.9440    37.5470   -19.9650 C.2          1 COA401   0.0000
    39 O9P         18.0890    37.3470   -19.5610 O.2          1 COA401   0.0000
    40 N8P         15.8710    37.5950   -19.1810 N.am         1 COA401   0.0000
    41 C7P         15.9190    37.4080   -17.7240 C.3          1 COA401   0.0000
    42 C6P         15.5920    35.9530   -17.3850 C.3          1 COA401   0.0000
    43 C5P         15.2160    35.8010   -15.9100 C.2          1 COA401   0.0000
    44 O5P         14.2310    36.3770   -15.4510 O.2          1 COA401   0.0000
    45 N4P         16.0150    35.0160   -15.1930 N.am         1 COA401   0.0000
    46 C3P         15.7850    34.7570   -13.7640 C.3          1 COA401   0.0000
    47 C2P         15.4390    33.2760   -13.5800 C.3          1 COA401   0.0000
    48 S1P         15.1510    32.7870   -11.8400 S.3          1 COA401   0.0000
    49 H2A          6.9303    34.5586   -21.8478 H            1 COA401   0.0000
    50 H6A1        11.0292    36.0418   -19.0050 H            1 COA401   0.0000
    51 H6A2         9.5653    35.3984   -18.3396 H            1 COA401   0.0000
    52 H8A         12.5762    36.9608   -23.3839 H            1 COA401   0.0000
    53 H1B          9.5661    35.8206   -25.2818 H            1 COA401   0.0000
    54 H2B         11.1916    38.2027   -25.2184 H            1 COA401   0.0000
    55 H7           8.8858    38.4390   -26.5171 H            1 COA401   0.0000
    56 H3B         11.2095    38.1049   -27.5987 H            1 COA401   0.0000
    57 H4B         12.2200    35.7617   -27.6531 H            1 COA401   0.0000
    58 H5B1        13.9003    36.3836   -26.0361 H            1 COA401   0.0000
    59 H5B2        12.8904    37.5050   -25.4122 H            1 COA401   0.0000
    60 HCP1        16.2706    35.8122   -24.1528 H            1 COA401   0.0000
    61 HCP2        15.3692    37.0915   -23.6863 H            1 COA401   0.0000
    62 HDP1        16.0154    35.2939   -20.6270 H            1 COA401   0.0000
    63 HDP2        14.8137    35.8133   -21.6031 H            1 COA401   0.0000
    64 HDP3        15.7801    34.5863   -22.0798 H            1 COA401   0.0000
    65 HEP1        18.4046    35.7389   -21.2441 H            1 COA401   0.0000
    66 HEP2        18.1564    35.0310   -22.6946 H            1 COA401   0.0000
    67 HEP3        18.7508    36.5500   -22.6184 H            1 COA401   0.0000
    68 HAP         17.3279    38.4071   -21.8288 H            1 COA401   0.0000
    69 H21         15.3194    38.9323   -22.3896 H            1 COA401   0.0000
    70 H8P         14.9825    37.7678   -19.6062 H            1 COA401   0.0000
    71 H7P1        15.2498    38.0101   -17.2885 H            1 COA401   0.0000
    72 H7P2        16.8348    37.6304   -17.3895 H            1 COA401   0.0000
    73 H6P1        16.3922    35.3851   -17.5780 H            1 COA401   0.0000
    74 H6P2        14.8245    35.6507   -17.9503 H            1 COA401   0.0000
    75 H4P         16.7993    34.5871   -15.6412 H            1 COA401   0.0000
    76 H3P1        15.0273    35.3222   -13.4377 H            1 COA401   0.0000
    77 H3P2        16.6116    34.9760   -13.2455 H            1 COA401   0.0000
    78 H2P1        16.1959    32.7297   -13.9386 H            1 COA401   0.0000
    79 H2P2        14.6094    33.0799   -14.1028 H            1 COA401   0.0000
    80 H1P         14.4960    32.0320   -11.8100 H            1 COA401   0.0000
@<TRIPOS>BOND
     1    1    2      ar
     2    1    6      ar
     3    2    3      ar
     4    3    4      ar
     5    4    5      ar
     6    4   10       1
     7    5    6      ar
     8    5    8       1
     9    6    7       1
    10    8    9       2
    11    9   10       1
    12   10   11       1
    13   11   12       1
    14   11   21       1
    15   12   13       1
    16   12   14       1
    17   14   15       1
    18   14   20       1
    19   15   16       1
    20   16   17      ar
    21   16   18      ar
    22   16   19      ar
    23   20   21       1
    24   20   22       1
    25   22   23       1
    26   23   24       1
    27   24   25      ar
    28   24   26      ar
    29   24   27       1
    30   27   28       1
    31   28   29      ar
    32   28   30      ar
    33   28   31       1
    34   31   33       1
    35   32   33       1
    36   32   34       1
    37   32   35       1
    38   32   36       1
    39   36   37       1
    40   36   38       1
    41   38   39       2
    42   38   40      am
    43   40   41       1
    44   41   42       1
    45   42   43       1
    46   43   44       2
    47   43   45      am
    48   45   46       1
    49   46   47       1
    50   47   48       1
    51    2   49       1
    52    7   50       1
    53    7   51       1
    54    9   52       1
    55   11   53       1
    56   12   54       1
    57   13   55       1
    58   14   56       1
    59   48   80       1
    60   47   79       1
    61   20   57       1
    62   22   58       1
    63   22   59       1
    64   47   78       1
    65   46   77       1
    66   33   60       1
    67   33   61       1
    68   34   62       1
    69   34   63       1
    70   34   64       1
    71   35   65       1
    72   35   66       1
    73   35   67       1
    74   36   68       1
    75   37   69       1
    76   40   70       1
    77   41   71       1
    78   41   72       1
    79   42   73       1
    80   42   74       1
    81   45   75       1
    82   46   76       1
@<TRIPOS>SUBSTRUCTURE
     1 COA401      1 GROUP             4 A     COA     0 **** COA A 401
