@<TRIPOS>MOLECULE
1gv0_NAD_1_ligand
   70    74     1     0     0
SMALL
NO_CHARGES


@<TRIPOS>ATOM
     1 PA          66.6040   109.1510    99.4890 P.3          1 NAD1306   0.0000
     2 O1A         67.0950   109.3370   100.8610 O.co2        1 NAD1306   0.0000
     3 O2A         67.1260   107.9980    98.6080 O.co2        1 NAD1306  -1.0000
     4 O5B         66.8630   110.4450    98.5750 O.3          1 NAD1306   0.0000
     5 C5B         66.5490   111.7970    99.0360 C.3          1 NAD1306   0.0000
     6 C4B         67.6580   112.6430    98.4600 C.3          1 NAD1306   0.0000
     7 O4B         67.3720   114.0400    98.9220 O.3          1 NAD1306   0.0000
     8 C3B         69.0930   112.3650    99.0340 C.3          1 NAD1306   0.0000
     9 O3B         69.9950   111.9900    97.8940 O.3          1 NAD1306   0.0000
    10 C2B         69.5650   113.5880    99.7550 C.3          1 NAD1306   0.0000
    11 O2B         70.8680   113.9240    99.8070 O.3          1 NAD1306   0.0000
    12 C1B         68.6230   114.6530    99.1080 C.3          1 NAD1306   0.0000
    13 N9A         68.4200   115.7870    99.9920 N.pl3        1 NAD1306   0.0000
    14 C8A         68.2040   115.9820   101.3310 C.2          1 NAD1306   0.0000
    15 N7A         68.0790   117.2450   101.7290 N.2          1 NAD1306   0.0000
    16 C5A         68.2120   117.9820   100.6210 C.ar         1 NAD1306   0.0000
    17 C6A         68.1760   119.4670   100.4000 C.ar         1 NAD1306   0.0000
    18 N6A         67.9930   120.3480   101.3510 N.pl3        1 NAD1306   0.0000
    19 N1A         68.3590   119.7840    99.0850 N.ar         1 NAD1306   0.0000
    20 C2A         68.5540   118.9910    98.0280 C.ar         1 NAD1306   0.0000
    21 N3A         68.5990   117.5750    98.1850 N.ar         1 NAD1306   0.0000
    22 C4A         68.4210   117.1330    99.5050 C.ar         1 NAD1306   0.0000
    23 O3          65.0620   109.0570    99.4430 O.3          1 NAD1306   0.0000
    24 PN          63.8890   108.6780    98.4940 P.3          1 NAD1306   0.0000
    25 O1N         63.6340   107.2250    98.6130 O.co2        1 NAD1306   0.0000
    26 O2N         64.2630   109.1940    97.1170 O.co2        1 NAD1306  -1.0000
    27 O5D         62.5220   109.4070    98.9990 O.3          1 NAD1306   0.0000
    28 C5D         62.6250   110.8940    98.9230 C.3          1 NAD1306   0.0000
    29 C4D         61.4320   111.5220    99.6100 C.3          1 NAD1306   0.0000
    30 O4D         60.1460   111.1000    98.9530 O.3          1 NAD1306   0.0000
    31 C3D         61.1670   111.1500   101.1090 C.3          1 NAD1306   0.0000
    32 O3D         60.7230   112.3250   101.8250 O.3          1 NAD1306   0.0000
    33 C2D         60.0970   110.0520   101.1020 C.3          1 NAD1306   0.0000
    34 O2D         59.4020   109.8340   102.3030 O.3          1 NAD1306   0.0000
    35 C1D         59.1840   110.5490    99.9350 C.3          1 NAD1306   0.0000
    36 N1N         58.2950   109.5640    99.1910 N.ar         1 NAD1306   1.0000
    37 C2N         56.9720   109.8690    98.8840 C.ar         1 NAD1306   0.0000
    38 C3N         56.2250   108.9370    98.2130 C.ar         1 NAD1306   0.0000
    39 C7N         54.7680   109.2320    97.8520 C.2          1 NAD1306   0.0000
    40 O7N         53.8960   108.4070    97.6320 O.2          1 NAD1306   0.0000
    41 N7N         54.4880   110.6250    97.7830 N.am         1 NAD1306   0.0000
    42 C4N         56.7580   107.6190    97.8000 C.ar         1 NAD1306   0.0000
    43 C5N         58.1100   107.4170    98.1640 C.ar         1 NAD1306   0.0000
    44 C6N         58.8830   108.2990    98.8190 C.ar         1 NAD1306   0.0000
    45 H5B1        66.5497   111.8415   100.0350 H            1 NAD1306   0.0000
    46 H5B2        65.6589   112.0933    98.6898 H            1 NAD1306   0.0000
    47 H4B         67.6598   112.5932    97.4612 H            1 NAD1306   0.0000
    48 H3B         69.0458   111.6022    99.6790 H            1 NAD1306   0.0000
    49 H5          70.0298   112.7416    97.2353 H            1 NAD1306   0.0000
    50 H2B         69.2639   113.4874   100.7033 H            1 NAD1306   0.0000
    51 H7          71.0921   114.5113    99.0292 H            1 NAD1306   0.0000
    52 H1B         68.9942   114.9582    98.2310 H            1 NAD1306   0.0000
    53 H8A         68.1437   115.2176   101.9730 H            1 NAD1306   0.0000
    54 H6A1        67.9802   121.3238   101.1329 H            1 NAD1306   0.0000
    55 H6A2        67.8660   120.0451   102.2955 H            1 NAD1306   0.0000
    56 H2A         68.6693   119.3936    97.1199 H            1 NAD1306   0.0000
    57 H5D1        62.6441   111.1776    97.9642 H            1 NAD1306   0.0000
    58 H5D2        63.4650   111.1929    99.3758 H            1 NAD1306   0.0000
    59 H4D         61.5127   112.5162    99.5395 H            1 NAD1306   0.0000
    60 H3D         62.0071   110.7998   101.5233 H            1 NAD1306   0.0000
    61 H17         61.1260   113.1405   101.4096 H            1 NAD1306   0.0000
    62 H2D         60.5266   109.1928   100.8242 H            1 NAD1306   0.0000
    63 H19         59.7382   110.4652   103.0020 H            1 NAD1306   0.0000
    64 H1D         58.6138   111.2970   100.2747 H            1 NAD1306   0.0000
    65 H2N         56.5757   110.7486    99.1473 H            1 NAD1306   0.0000
    66 H7N1        53.5665   110.9391    97.5547 H            1 NAD1306   0.0000
    67 H7N2        55.2127   111.2902    97.9628 H            1 NAD1306   0.0000
    68 H4N         56.2145   106.9370    97.3107 H            1 NAD1306   0.0000
    69 H5N         58.5257   106.5431    97.9122 H            1 NAD1306   0.0000
    70 H6N         59.8344   108.0864    99.0416 H            1 NAD1306   0.0000
@<TRIPOS>BOND
     1    1    2      ar
     2    1    3      ar
     3    1    4       1
     4    1   23       1
     5    4    5       1
     6    5    6       1
     7    6    7       1
     8    6    8       1
     9    7   12       1
    10    8    9       1
    11    8   10       1
    12   10   11       1
    13   10   12       1
    14   12   13       1
    15   13   14       1
    16   13   22       1
    17   14   15       2
    18   15   16       1
    19   16   17      ar
    20   16   22      ar
    21   17   18       1
    22   17   19      ar
    23   19   20      ar
    24   20   21      ar
    25   21   22      ar
    26   23   24       1
    27   24   25      ar
    28   24   26      ar
    29   24   27       1
    30   27   28       1
    31   28   29       1
    32   29   30       1
    33   29   31       1
    34   30   35       1
    35   31   32       1
    36   31   33       1
    37   33   34       1
    38   33   35       1
    39   35   36       1
    40   36   37      ar
    41   36   44      ar
    42   37   38      ar
    43   38   39       1
    44   38   42      ar
    45   39   40       2
    46   39   41      am
    47   42   43      ar
    48   43   44      ar
    49   44   70       1
    50    5   45       1
    51    5   46       1
    52    6   47       1
    53    8   48       1
    54    9   49       1
    55   10   50       1
    56   11   51       1
    57   12   52       1
    58   14   53       1
    59   18   54       1
    60   18   55       1
    61   20   56       1
    62   43   69       1
    63   28   57       1
    64   28   58       1
    65   29   59       1
    66   31   60       1
    67   32   61       1
    68   33   62       1
    69   34   63       1
    70   35   64       1
    71   37   65       1
    72   41   66       1
    73   41   67       1
    74   42   68       1
@<TRIPOS>SUBSTRUCTURE
     1 NAD1306     1 GROUP             4 A     NAD     0 **** NAD A1306
