@<TRIPOS>MOLECULE
./coach420/1jcl/ligand.pdb
 13 12 0 0 0
SMALL
GASTEIGER

@<TRIPOS>ATOM
      1  P         22.8430    1.1950   53.8390 P.3   802  HPD802      0.5327
      2  O5'       23.8230    2.4850   53.6140 O.3   802  HPD802     -0.2674
      3  O1P       22.6760    0.5840   52.4540 O.2   802  HPD802     -0.2224
      4  O2P       21.5920    1.6440   54.4770 O.3   802  HPD802     -0.1145
      5  O3P       23.6120    0.2730   54.8480 O.3   802  HPD802     -0.1145
      6  C5'       23.2720    3.6340   52.9890 C.3   802  HPD802      0.1891
      7  O4'       25.0310    3.7400   51.3460 O.3   802  HPD802     -0.2177
      8  O3'       23.4790    6.5220   53.0260 O.3   802  HPD802     -0.2202
      9  C1'       25.2260    8.0840   51.0750 C.3   802  HPD802      0.1848
     10  O1'       24.2800    8.2300   50.1240 O.3   802  HPD802     -0.2203
     11  C3'       24.1380    5.9220   51.8910 C.3   802  HPD802      0.1873
     12  C4'       24.4780    4.4490   52.4620 C.3   802  HPD802      0.2121
     13  C2'       25.3910    6.6730   51.4700 C.3   802  HPD802      0.0711
@<TRIPOS>BOND
     1     1     3    2
     2     1     2    1
     3     1     4    1
     4     1     5    1
     5     2     6    1
     6     6    12    1
     7     7    12    1
     8     8    11    1
     9     9    10    1
    10     9    13    1
    11    11    13    1
    12    11    12    1
