@<TRIPOS>MOLECULE
1z7y_AA5_1_ligand
   43    43     1     0     0
SMALL
NO_CHARGES


@<TRIPOS>ATOM
     1 N           78.9700    42.5890   -14.4870 N.4          1 AA5501   1.0000
     2 CA          78.8690    43.0960   -13.0760 C.3          1 AA5501   0.0000
     3 C           77.3660    43.3500   -12.6800 C.2          1 AA5501   0.0000
     4 O1          77.0130    43.2560   -11.4800 O.co2        1 AA5501   0.0000
     5 CB          79.7120    44.4120   -12.8710 C.3          1 AA5501   0.0000
     6 CG          79.0580    45.7150   -13.3730 C.3          1 AA5501   0.0000
     7 SD          80.0140    47.2380   -13.1020 S.3          1 AA5501   0.0000
     8 CE          78.7130    48.3340   -12.4600 C.3          1 AA5501   0.0000
     9 O2          76.5420    43.6690   -13.5640 O.co2        1 AA5501  -1.0000
    10 C2          79.5060    43.2790   -18.7820 C.ar         1 AA5501   0.0000
    11 C2A         78.4150    43.1700   -19.8330 C.3          1 AA5501   0.0000
    12 C3          79.2990    42.7630   -17.5020 C.ar         1 AA5501   0.0000
    13 C4          80.3400    42.8790   -16.5000 C.ar         1 AA5501   0.0000
    14 C4A         80.0880    42.3030   -15.0700 C.3          1 AA5501   0.0000
    15 C5          81.5790    43.5060   -16.8280 C.ar         1 AA5501   0.0000
    16 C5A         82.7200    43.6840   -15.7850 C.3          1 AA5501   0.0000
    17 C6          81.7500    44.0070   -18.1290 C.ar         1 AA5501   0.0000
    18 N1          80.7250    43.8850   -19.0950 N.ar         1 AA5501   0.0000
    19 O1P         85.7570    41.6660   -14.3010 O.co2        1 AA5501   0.0000
    20 O2P         85.5940    44.0970   -14.5930 O.co2        1 AA5501  -1.0000
    21 O3          78.0830    42.1710   -17.2170 O.3          1 AA5501   0.0000
    22 O3P         83.8880    42.9860   -13.1500 O.co2        1 AA5501  -1.0000
    23 O4P         83.7610    42.6750   -15.6910 O.3          1 AA5501   0.0000
    24 P           84.7450    42.7450   -14.3610 P.3          1 AA5501   0.0000
    25 H1          78.5359    43.2857   -15.0581 H            1 AA5501   0.0000
    26 HA          79.2364    42.3936   -12.4664 H            1 AA5501   0.0000
    27 HB1         80.5798    44.2985   -13.3547 H            1 AA5501   0.0000
    28 HB2         79.8871    44.5144   -11.8918 H            1 AA5501   0.0000
    29 HG1         78.1799    45.8170   -12.9056 H            1 AA5501   0.0000
    30 HG2         78.9032    45.6212   -14.3565 H            1 AA5501   0.0000
    31 HE1         79.1028    49.2331   -12.2608 H            1 AA5501   0.0000
    32 HE2         77.9894    48.4285   -13.1437 H            1 AA5501   0.0000
    33 HE3         78.3312    47.9432   -11.6224 H            1 AA5501   0.0000
    34 H2A1        78.7299    43.5883   -20.6850 H            1 AA5501   0.0000
    35 H2A2        78.2020    42.2062   -19.9936 H            1 AA5501   0.0000
    36 H2A3        77.5948    43.6437   -19.5124 H            1 AA5501   0.0000
    37 H4A1        80.1414    41.3067   -15.1374 H            1 AA5501   0.0000
    38 H4A2        80.8240    42.6372   -14.4812 H            1 AA5501   0.0000
    39 H5A1        82.2868    43.7409   -14.8855 H            1 AA5501   0.0000
    40 H5A2        83.1723    44.5514   -15.9926 H            1 AA5501   0.0000
    41 H17         82.6088    44.4563   -18.3754 H            1 AA5501   0.0000
    42 H18         77.9115    41.7941   -16.3067 H            1 AA5501   0.0000
    43 H19         78.4267    41.7499   -14.5140 H            1 AA5501   0.0000
@<TRIPOS>BOND
     1    1    2       1
     2    1   14       1
     3    2    3       1
     4    2    5       1
     5    3    4      ar
     6    3    9      ar
     7    5    6       1
     8    6    7       1
     9    7    8       1
    10   10   11       1
    11   10   12      ar
    12   10   18      ar
    13   12   13      ar
    14   12   21       1
    15   13   14       1
    16   13   15      ar
    17   15   16       1
    18   15   17      ar
    19   16   23       1
    20   17   18      ar
    21   19   24      ar
    22   20   24      ar
    23   22   24      ar
    24   23   24       1
    25    1   25       1
    26    2   26       1
    27    1   43       1
    28    5   27       1
    29    5   28       1
    30    6   29       1
    31    6   30       1
    32    8   31       1
    33    8   32       1
    34    8   33       1
    35   11   34       1
    36   11   35       1
    37   11   36       1
    38   14   37       1
    39   14   38       1
    40   16   39       1
    41   16   40       1
    42   17   41       1
    43   21   42       1
@<TRIPOS>SUBSTRUCTURE
     1 AA5501      1 GROUP             4 A     AA5     0 **** AA5 A 501
