@<TRIPOS>MOLECULE
./coach420/1n07/ligand.pdb
 57 60 0 0 0
SMALL
GASTEIGER

@<TRIPOS>ATOM
      1  PB         0.9180    6.0520  -14.9270 P.3   164  ADP164      0.5373
      2  O1B        0.6160    5.8980  -13.4680 O.3   164  ADP164     -0.1143
      3  O2B       -0.2480    6.7410  -15.5550 O.2   164  ADP164     -0.2221
      4  O3B        2.2360    6.9460  -15.0980 O.3   164  ADP164     -0.1143
      5  PA         2.3690    3.7460  -15.0370 P.3   164  ADP164      0.2231
      6  O1A        3.1710    4.3510  -13.9470 O.3   164  ADP164     -0.4370
      7  O2A        3.2920    3.3550  -16.1430 O.2   164  ADP164     -0.5169
      8  O3A        1.1920    4.6620  -15.7030 O.3   164  ADP164     -0.2261
      9  O5'        1.7060    2.4420  -14.4490 O.3   164  ADP164     -0.3111
     10  C5'        0.6840    2.5470  -13.4940 C.3   164  ADP164      0.1813
     11  C4'       -0.3400    1.4640  -13.7940 C.3   164  ADP164      0.1801
     12  O4'        0.1770    0.1370  -13.6580 O.3   164  ADP164     -0.3306
     13  C3'       -1.5220    1.4810  -12.8220 C.3   164  ADP164      0.2161
     14  O3'       -2.4150    2.5410  -13.1480 O.3   164  ADP164     -0.2175
     15  C2'       -2.1070    0.0830  -12.9590 C.3   164  ADP164      0.2337
     16  O2'       -3.2210    0.1270  -13.8760 O.3   164  ADP164     -0.2155
     17  C1'       -0.9160   -0.7750  -13.5060 C.3   164  ADP164      0.2409
     18  N9        -0.4200   -1.8330  -12.6220 N.ar  164  ADP164     -0.2693
     19  C8        -0.1800   -3.0730  -12.9620 C.ar  164  ADP164      0.1816
     20  N7         0.2460   -3.7720  -12.0030 N.ar  164  ADP164     -0.2193
     21  C5         0.3360   -3.0030  -10.9000 C.ar  164  ADP164      0.1518
     22  C6         0.7350   -3.2260   -9.5570 C.ar  164  ADP164      0.1919
     23  N6         1.1810   -4.4130   -9.1220 N.pl3 164  ADP164     -0.1054
     24  N1         0.6730   -2.1580   -8.6960 N.ar  164  ADP164     -0.2040
     25  C2         0.2210   -0.9180   -9.0900 C.ar  164  ADP164      0.2016
     26  N3        -0.1680   -0.6910  -10.3920 N.ar  164  ADP164     -0.2048
     27  C4        -0.1280   -1.7300  -11.2840 C.ar  164  ADP164      0.1692
     28  C2        10.2980   10.6180   -3.4480 C.2   165  FMN165      0.3274
     29  O2        10.7520   11.6610   -3.8230 O.2   165  FMN165     -0.2628
     30  N3        10.6050   10.2040   -2.1050 N.am  165  FMN165     -0.1318
     31  C4        10.1720    9.0560   -1.5200 C.2   165  FMN165      0.2907
     32  O4        10.5240    8.7710   -0.3650 O.2   165  FMN165     -0.2662
     33  C4A        9.3450    8.1830   -2.3640 C.2   165  FMN165      0.1507
     34  N5         8.8160    7.0710   -1.8740 N.2   165  FMN165     -0.2417
     35  C5A        7.9090    6.3780   -2.6320 C.2   165  FMN165      0.0810
     36  C6         7.2270    5.2140   -2.0610 C.2   165  FMN165      0.0121
     37  C7         6.4160    4.3890   -2.7880 C.2   165  FMN165     -0.0248
     38  C7M        5.7120    3.1770   -2.1430 C.3   165  FMN165      0.0307
     39  C8         6.0000    4.8060   -4.1340 C.2   165  FMN165     -0.0280
     40  C8M        4.9900    4.0060   -4.9200 C.3   165  FMN165      0.0304
     41  C9         6.6660    5.8920   -4.7130 C.2   165  FMN165     -0.0053
     42  C9A        7.5980    6.6950   -4.0250 C.3   165  FMN165      0.1355
     43  N10        8.2950    7.8300   -4.5650 N.pl3 165  FMN165     -0.2957
     44  C10        9.0450    8.6630   -3.7500 C.2   165  FMN165      0.0859
     45  C1'        8.1080    8.2570   -5.9860 C.3   165  FMN165      0.1271
     46  C2'        7.0450    9.2460   -6.3880 C.3   165  FMN165      0.2044
     47  O2'        5.7110    8.8100   -6.0880 O.3   165  FMN165     -0.2185
     48  C3'        7.2580    9.4220   -7.9240 C.3   165  FMN165      0.2164
     49  O3'        7.8130   10.7460   -8.1600 O.3   165  FMN165     -0.2175
     50  C4'        6.0830    9.2550   -8.8670 C.3   165  FMN165      0.2147
     51  O4'        6.6460    9.1940  -10.2070 O.3   165  FMN165     -0.2176
     52  C5'        5.1170   10.4120   -8.9060 C.3   165  FMN165      0.1892
     53  O5'        3.9070   10.0960   -9.6500 O.3   165  FMN165     -0.2674
     54  P          3.8580    9.9720  -11.2340 P.3   165  FMN165      0.5327
     55  O1P        4.6980    8.7820  -11.6400 O.3   165  FMN165     -0.1145
     56  O2P        4.3290   11.2710  -11.8260 O.2   165  FMN165     -0.2224
     57  O3P        2.3490    9.6490  -11.5390 O.3   165  FMN165     -0.1145
@<TRIPOS>BOND
     1     1     8    1
     2     1     3    2
     3     1     4    1
     4     1     2    1
     5     5     7    2
     6     5     8    1
     7     5     9    1
     8     5     6    1
     9     9    10    1
    10    10    11    1
    11    11    12    1
    12    11    13    1
    13    12    17    1
    14    13    14    1
    15    13    15    1
    16    15    16    1
    17    15    17    1
    18    17    18    1
    19    18    19   ar
    20    18    27   ar
    21    19    20   ar
    22    20    21   ar
    23    21    27   ar
    24    21    22   ar
    25    22    23    1
    26    22    24   ar
    27    24    25   ar
    28    25    26   ar
    29    26    27   ar
    30    28    29    2
    31    28    30   am
    32    30    31   am
    33    31    33    1
    34    31    32    2
    35    33    44    2
    36    33    34    1
    37    34    35    2
    38    35    42    1
    39    35    36    1
    40    36    37    2
    41    37    39    1
    42    37    38    1
    43    39    40    1
    44    39    41    2
    45    41    42    1
    46    42    43    1
    47    43    45    1
    48    43    44    1
    49    45    46    1
    50    46    48    1
    51    46    47    1
    52    48    50    1
    53    48    49    1
    54    50    51    1
    55    50    52    1
    56    52    53    1
    57    53    54    1
    58    54    56    2
    59    54    55    1
    60    54    57    1
