@<TRIPOS>MOLECULE
2zcv_NDP_1_ligand
   73    77     1     0     0
SMALL
NO_CHARGES


@<TRIPOS>ATOM
     1 PA          21.8240    10.2480     7.2040 P.3          1 NDP400   0.0000
     2 O1A         21.8720     8.8340     7.6890 O.co2        1 NDP400   0.0000
     3 O2A         20.8080    10.5150     6.2040 O.co2        1 NDP400  -1.0000
     4 O5B         23.2530    10.7690     6.5630 O.3          1 NDP400   0.0000
     5 C5B         24.3940     9.9560     6.8590 C.3          1 NDP400   0.0000
     6 C4B         25.7580    10.1840     6.3750 C.3          1 NDP400   0.0000
     7 O4B         27.0370     9.9000     6.8780 O.3          1 NDP400   0.0000
     8 C3B         25.6390     9.6500     4.9340 C.3          1 NDP400   0.0000
     9 O3B         25.3830    10.7480     4.0750 O.3          1 NDP400   0.0000
    10 C2B         26.9690     8.9610     4.5250 C.3          1 NDP400   0.0000
    11 O2B         26.1600     7.6170     4.1510 O.3          1 NDP400   0.0000
    12 C1B         27.8180     9.1940     5.8680 C.3          1 NDP400   0.0000
    13 N9A         28.3330     7.9210     6.5140 N.pl3        1 NDP400   0.0000
    14 C8A         27.7600     7.0930     7.4890 C.2          1 NDP400   0.0000
    15 N7A         28.6650     6.0350     7.7280 N.2          1 NDP400   0.0000
    16 C5A         29.7220     6.2480     6.9170 C.ar         1 NDP400   0.0000
    17 C6A         31.0430     5.4230     6.7210 C.ar         1 NDP400   0.0000
    18 N6A         31.3120     4.1990     7.4720 N.pl3        1 NDP400   0.0000
    19 N1A         32.0360     6.0380     5.6490 N.ar         1 NDP400   0.0000
    20 C2A         31.6630     7.2900     4.9410 C.ar         1 NDP400   0.0000
    21 N3A         30.4810     7.8770     5.2280 N.ar         1 NDP400   0.0000
    22 C4A         29.5330     7.3740     6.1890 C.ar         1 NDP400   0.0000
    23 O3          21.5620    11.2780     8.3700 O.3          1 NDP400   0.0000
    24 PN          20.9490    12.7190     8.1720 P.3          1 NDP400   0.0000
    25 O1N         19.5200    12.6930     8.4790 O.co2        1 NDP400   0.0000
    26 O2N         21.2250    13.1240     6.7770 O.co2        1 NDP400  -1.0000
    27 O5D         21.6610    13.5170     9.3290 O.3          1 NDP400   0.0000
    28 C5D         22.9150    13.9830     9.7870 C.3          1 NDP400   0.0000
    29 C4D         23.7810    13.4960    10.9830 C.3          1 NDP400   0.0000
    30 O4D         23.1850    13.7500    12.2290 O.3          1 NDP400   0.0000
    31 C3D         23.8960    12.0270    10.6580 C.3          1 NDP400   0.0000
    32 O3D         25.1700    11.6140    10.3040 O.3          1 NDP400   0.0000
    33 C2D         23.2910    11.3870    11.9200 C.3          1 NDP400   0.0000
    34 O2D         24.1960    10.4320    12.5640 O.3          1 NDP400   0.0000
    35 C1D         22.8560    12.5610    12.8880 C.3          1 NDP400   0.0000
    36 N1N         21.3450    12.8820    13.3690 N.ar         1 NDP400   1.0000
    37 C2N         21.0230    14.0460    14.2950 C.ar         1 NDP400   0.0000
    38 C3N         19.6650    14.2450    14.6670 C.ar         1 NDP400   0.0000
    39 C7N         19.2680    15.3770    15.5720 C.2          1 NDP400   0.0000
    40 O7N         18.1070    15.5400    15.8800 O.2          1 NDP400   0.0000
    41 N7N         20.2750    16.3090    16.1000 N.am         1 NDP400   0.0000
    42 C4N         18.5880    13.2200    14.0800 C.ar         1 NDP400   0.0000
    43 C5N         18.9280    12.1400    13.2150 C.ar         1 NDP400   0.0000
    44 C6N         20.3970    11.9630    12.8350 C.ar         1 NDP400   0.0000
    45 P2B         25.2450     7.0650     2.8980 P.3          1 NDP400   0.0000
    46 O1X         24.8930     5.7280     3.4270 O.co2        1 NDP400   0.0000
    47 O2X         24.0970     7.9870     2.7990 O.co2        1 NDP400  -1.0000
    48 O3X         26.0740     7.0050     1.6730 O.co2        1 NDP400  -1.0000
    49 H5B1        24.1525     9.0387     6.5424 H            1 NDP400   0.0000
    50 H5B2        24.4654     9.9563     7.8564 H            1 NDP400   0.0000
    51 H4B         25.7851    11.1750     6.2438 H            1 NDP400   0.0000
    52 H3B         24.8867     8.9937     4.8775 H            1 NDP400   0.0000
    53 H5          25.7684    10.5612     3.1714 H            1 NDP400   0.0000
    54 H2B         27.3917     9.3884     3.7258 H            1 NDP400   0.0000
    55 H1B         28.6076     9.7626     5.6374 H            1 NDP400   0.0000
    56 H8A         26.8742     7.2265     7.9334 H            1 NDP400   0.0000
    57 H6A1        32.1642     3.6977     7.3224 H            1 NDP400   0.0000
    58 H6A2        30.6439     3.8625     8.1356 H            1 NDP400   0.0000
    59 H2A         32.2778     7.6918     4.2624 H            1 NDP400   0.0000
    60 H5D1        22.7623    14.9534     9.9742 H            1 NDP400   0.0000
    61 H5D2        23.5165    13.8872     8.9939 H            1 NDP400   0.0000
    62 H4D         24.6840    13.9240    10.9449 H            1 NDP400   0.0000
    63 H3D         23.2848    11.8325     9.8908 H            1 NDP400   0.0000
    64 H16         25.8467    12.1848    10.7691 H            1 NDP400   0.0000
    65 H2D         22.4658    10.8921    11.6477 H            1 NDP400   0.0000
    66 H18         23.7539    10.0485    13.3748 H            1 NDP400   0.0000
    67 H1D         23.4267    12.5029    13.7071 H            1 NDP400   0.0000
    68 H2N         21.7439    14.6520    14.6314 H            1 NDP400   0.0000
    69 H7N1        19.9966    17.0579    16.7013 H            1 NDP400   0.0000
    70 H7N2        21.2384    16.1940    15.8578 H            1 NDP400   0.0000
    71 H4N         17.6282    13.3428    14.3323 H            1 NDP400   0.0000
    72 H5N         18.2269    11.5173    12.8675 H            1 NDP400   0.0000
    73 H6N         20.6850    11.2223    12.2280 H            1 NDP400   0.0000
@<TRIPOS>BOND
     1    1    2      ar
     2    1    3      ar
     3    1    4       1
     4    1   23       1
     5    4    5       1
     6    5    6       1
     7    6    7       1
     8    6    8       1
     9    7   12       1
    10    8    9       1
    11    8   10       1
    12   10   11       1
    13   10   12       1
    14   11   45       1
    15   12   13       1
    16   13   14       1
    17   13   22       1
    18   14   15       2
    19   15   16       1
    20   16   17      ar
    21   16   22      ar
    22   17   18       1
    23   17   19      ar
    24   19   20      ar
    25   20   21      ar
    26   21   22      ar
    27   23   24       1
    28   24   25      ar
    29   24   26      ar
    30   24   27       1
    31   27   28       1
    32   28   29       1
    33   29   30       1
    34   29   31       1
    35   30   35       1
    36   31   32       1
    37   31   33       1
    38   33   34       1
    39   33   35       1
    40   35   36       1
    41   36   37      ar
    42   36   44      ar
    43   37   38      ar
    44   38   39       1
    45   38   42      ar
    46   39   40       2
    47   39   41      am
    48   42   43      ar
    49   43   44      ar
    50   45   46      ar
    51   45   47      ar
    52   45   48      ar
    53   43   72       1
    54    5   49       1
    55    5   50       1
    56    6   51       1
    57    8   52       1
    58    9   53       1
    59   10   54       1
    60   12   55       1
    61   14   56       1
    62   18   57       1
    63   18   58       1
    64   20   59       1
    65   44   73       1
    66   28   60       1
    67   28   61       1
    68   29   62       1
    69   31   63       1
    70   32   64       1
    71   33   65       1
    72   34   66       1
    73   35   67       1
    74   37   68       1
    75   41   69       1
    76   41   70       1
    77   42   71       1
@<TRIPOS>SUBSTRUCTURE
     1 NDP400      1 GROUP             4 A     NDP     0 **** NDP A 400
