@<TRIPOS>MOLECULE
3lm8_VIB_4_ligand
   35    36     1     0     0
SMALL
NO_CHARGES


@<TRIPOS>ATOM
     1 CM2         24.1430     1.3430   -18.4910 C.3          1 VIB223   0.0000
     2 N4A         25.8350     4.1630   -15.0070 N.pl3        1 VIB223   0.0000
     3 CM4         29.0970     8.1650   -16.9680 C.3          1 VIB223   0.0000
     4 O1          27.6230    11.5760   -19.4530 O.3          1 VIB223   0.0000
     5 C7          27.0050    11.8490   -18.1920 C.3          1 VIB223   0.0000
     6 C6          27.5190    10.9100   -17.0970 C.3          1 VIB223   0.0000
     7 C2          25.4660     7.4110   -17.1130 C.2          1 VIB223   0.0000
     8 S1          25.2200     9.1390   -17.1780 S.3          1 VIB223   0.0000
     9 C5          26.9260     9.4980   -17.1540 C.2          1 VIB223   0.0000
    10 C4          27.5710     8.2700   -17.0390 C.2          1 VIB223   0.0000
    11 N3          26.7770     7.1960   -16.9840 N.2          1 VIB223   1.0000
    12 C7A         27.3550     5.8520   -16.8350 C.3          1 VIB223   0.0000
    13 C4A         25.7370     3.9130   -16.3090 C.ar         1 VIB223   0.0000
    14 N3A         25.0240     2.8580   -16.7260 N.ar         1 VIB223   0.0000
    15 C2A         24.9390     2.5660   -18.0320 C.ar         1 VIB223   0.0000
    16 N1A         25.5640     3.3340   -18.9350 N.ar         1 VIB223   0.0000
    17 C6A         26.2760     4.3850   -18.5690 C.ar         1 VIB223   0.0000
    18 C5A         26.3990     4.7210   -17.2270 C.ar         1 VIB223   0.0000
    19 HM21        24.1833     1.2739   -19.4878 H            1 VIB223   0.0000
    20 HM22        24.5349     0.5181   -18.0836 H            1 VIB223   0.0000
    21 HM23        23.1904     1.4375   -18.2017 H            1 VIB223   0.0000
    22 H4A1        26.3651     4.9483   -14.6872 H            1 VIB223   0.0000
    23 H4A2        25.3786     3.5658   -14.3474 H            1 VIB223   0.0000
    24 HM41        29.3616     7.2040   -16.8880 H            1 VIB223   0.0000
    25 HM42        29.4968     8.5528   -17.7985 H            1 VIB223   0.0000
    26 HM43        29.4291     8.6697   -16.1711 H            1 VIB223   0.0000
    27 H9          28.4535    12.1257   -19.5431 H            1 VIB223   0.0000
    28 H10         26.0162    11.7309   -18.2829 H            1 VIB223   0.0000
    29 H11         27.2052    12.7931   -17.9302 H            1 VIB223   0.0000
    30 H12         27.2928    11.3099   -16.2088 H            1 VIB223   0.0000
    31 H13         28.5123    10.8372   -17.1866 H            1 VIB223   0.0000
    32 H14         24.7543     6.7104   -17.1633 H            1 VIB223   0.0000
    33 H7A1        27.6172     5.7258   -15.8783 H            1 VIB223   0.0000
    34 H7A2        28.1681     5.7925   -17.4141 H            1 VIB223   0.0000
    35 H6A         26.7299     4.9430   -19.2637 H            1 VIB223   0.0000
@<TRIPOS>BOND
     1    1   15       1
     2    2   13       1
     3    3   10       1
     4    4    5       1
     5    5    6       1
     6    6    9       1
     7    7    8       1
     8    7   11       2
     9    8    9       1
    10    9   10       2
    11   10   11       1
    12   11   12       1
    13   12   18       1
    14   13   14      ar
    15   13   18      ar
    16   14   15      ar
    17   15   16      ar
    18   16   17      ar
    19   17   18      ar
    20    1   19       1
    21    1   20       1
    22    1   21       1
    23    2   22       1
    24    2   23       1
    25    3   24       1
    26    3   25       1
    27    3   26       1
    28    4   27       1
    29    5   28       1
    30    5   29       1
    31    6   30       1
    32    6   31       1
    33    7   32       1
    34   12   33       1
    35   12   34       1
    36   17   35       1
@<TRIPOS>SUBSTRUCTURE
     1 VIB223      1 GROUP             4 D     VIB     0 **** VIB D 223
