@<TRIPOS>MOLECULE
2p0r_LEU_LEU_ACE_AR7_2_ligand
   63    62     3     0     0
SMALL
NO_CHARGES


@<TRIPOS>ATOM
     1 N           -6.2290    18.3390    60.9050 N.am         1 LEU356   0.0000
     2 CA          -5.0700    17.4750    61.2300 C.3          1 LEU356   0.0000
     3 C           -3.8010    18.2940    61.0600 C.2          1 LEU356   0.0000
     4 O           -3.7790    19.2680    60.3030 O.2          1 LEU356   0.0000
     5 CB          -4.9710    16.2270    60.3380 C.3          1 LEU356   0.0000
     6 CG          -5.5380    14.8920    60.8450 C.3          1 LEU356   0.0000
     7 CD1         -5.1310    13.8000    59.8530 C.3          1 LEU356   0.0000
     8 CD2         -5.1220    14.5130    62.2780 C.3          1 LEU356   0.0000
     9 HA          -5.1414    17.1848    62.1843 H            1 LEU356   0.0000
    10 HB1         -3.9999    16.0789    60.1506 H            1 LEU356   0.0000
    11 HB2         -5.4464    16.4403    59.4845 H            1 LEU356   0.0000
    12 HG          -6.5355    14.9605    60.8274 H            1 LEU356   0.0000
    13 HD11        -5.4892    12.9189    60.1617 H            1 LEU356   0.0000
    14 HD12        -5.5043    14.0138    58.9503 H            1 LEU356   0.0000
    15 HD13        -4.1335    13.7538    59.7988 H            1 LEU356   0.0000
    16 HD21        -5.5339    13.6355    62.5236 H            1 LEU356   0.0000
    17 HD22        -4.1260    14.4391    62.3274 H            1 LEU356   0.0000
    18 HD23        -5.4359    15.2182    62.9138 H            1 LEU356   0.0000
    19 H14         -6.0260    19.3046    60.7423 H            1 LEU356   0.0000
    20 N           -2.7470    17.8860    61.7600 N.am         2 LEU357   0.0000
    21 CA          -1.4700    18.5960    61.7310 C.3          2 LEU357   0.0000
    22 C           -0.7040    18.2670    60.4470 C.2          2 LEU357   0.0000
    23 O           -0.7390    17.1370    59.9810 O.2          2 LEU357   0.0000
    24 CB          -0.6390    18.2310    62.9690 C.3          2 LEU357   0.0000
    25 CG          -1.2710    18.5820    64.3230 C.3          2 LEU357   0.0000
    26 CD1         -0.4770    17.9510    65.4430 C.3          2 LEU357   0.0000
    27 CD2         -1.3700    20.0780    64.5230 C.3          2 LEU357   0.0000
    28 H15         -2.8308    17.0655    62.3255 H            2 LEU357   0.0000
    29 H16         -1.6524    19.5790    61.7492 H            2 LEU357   0.0000
    30 H17          0.2355    18.7117    62.9045 H            2 LEU357   0.0000
    31 H18         -0.4790    17.2440    62.9514 H            2 LEU357   0.0000
    32 H19         -2.1959    18.2024    64.3436 H            2 LEU357   0.0000
    33 H20         -0.8953    18.1845    66.3208 H            2 LEU357   0.0000
    34 H21         -0.4725    16.9574    65.3297 H            2 LEU357   0.0000
    35 H22          0.4623    18.2934    65.4197 H            2 LEU357   0.0000
    36 H23         -1.7851    20.2686    65.4126 H            2 LEU357   0.0000
    37 H24         -0.4550    20.4801    64.4890 H            2 LEU357   0.0000
    38 H25         -1.9353    20.4743    63.7996 H            2 LEU357   0.0000
    39 N           -0.0230    19.2610    59.8860 N.am         3 AR7358   0.0000
    40 CA           0.6880    19.1120    58.6190 C.3          3 AR7358   0.0000
    41 C            2.1280    19.5890    58.7410 C.2          3 AR7358   0.0000
    42 O            3.0210    19.0650    58.0840 O.2          3 AR7358   0.0000
    43 CB          -0.0040    19.9050    57.5040 C.3          3 AR7358   0.0000
    44 CG          -1.2220    19.2250    56.8870 C.3          3 AR7358   0.0000
    45 CD          -1.5480    19.7930    55.4930 C.3          3 AR7358   0.0000
    46 NE          -2.9230    19.4920    55.0620 N.pl3        3 AR7358   1.0000
    47 CZ          -3.3550    19.4850    53.7990 C.cat        3 AR7358   0.0000
    48 NH1         -2.5330    19.7500    52.7860 N.pl3        3 AR7358   0.0000
    49 NH2         -4.6240    19.2000    53.5460 N.pl3        3 AR7358   0.0000
    50 H26          0.0036    20.1464    60.3500 H            3 AR7358   0.0000
    51 H27          0.6924    18.1442    58.3672 H            3 AR7358   0.0000
    52 H28          2.3487    20.3390    59.3646 H            3 AR7358   0.0000
    53 H29          0.6636    20.0641    56.7767 H            3 AR7358   0.0000
    54 H30         -0.2981    20.7819    57.8841 H            3 AR7358   0.0000
    55 HG1         -2.0099    19.3659    57.4865 H            3 AR7358   0.0000
    56 HG2         -1.0381    18.2457    56.8028 H            3 AR7358   0.0000
    57 HD1         -0.9117    19.3982    54.8303 H            3 AR7358   0.0000
    58 HD2         -1.4308    20.7858    55.5170 H            3 AR7358   0.0000
    59 HH11        -2.8770    19.7395    51.8471 H            3 AR7358   0.0000
    60 HH12        -1.5715    19.9596    52.9639 H            3 AR7358   0.0000
    61 HH21        -4.9563    19.1924    52.6029 H            3 AR7358   0.0000
    62 HH22        -5.2494    18.9925    54.2982 H            3 AR7358   0.0000
    63 HE          -3.5893    19.2745    55.7752 H            3 AR7358   0.0000
@<TRIPOS>BOND
     1    8   18       1
     2    1    2       1
     3    2    5       1
     4    2    3       1
     5    5    6       1
     6    6    7       1
     7    6    8       1
     8    3    4       2
     9    8   17       1
    10    8   16       1
    11    2    9       1
    12    3   20      am
    13    5   10       1
    14    5   11       1
    15    6   12       1
    16    7   13       1
    17    7   14       1
    18    7   15       1
    19    1   19       1
    20   20   21       1
    21   21   24       1
    22   21   22       1
    23   24   25       1
    24   25   26       1
    25   25   27       1
    26   22   23       2
    27   27   38       1
    28   20   28       1
    29   21   29       1
    30   22   39      am
    31   24   30       1
    32   24   31       1
    33   25   32       1
    34   26   33       1
    35   26   34       1
    36   26   35       1
    37   27   36       1
    38   27   37       1
    39   39   40       1
    40   40   41       1
    41   40   43       1
    42   41   42       2
    43   43   44       1
    44   44   45       1
    45   45   46       1
    46   46   47      ar
    47   47   48      ar
    48   47   49      ar
    49   49   62       1
    50   39   50       1
    51   40   51       1
    52   41   52       1
    53   43   53       1
    54   43   54       1
    55   44   55       1
    56   44   56       1
    57   45   57       1
    58   45   58       1
    59   48   59       1
    60   48   60       1
    61   49   61       1
    62   46   63       1
@<TRIPOS>SUBSTRUCTURE
     1 LEU356      1 RESIDUE           4 E     LEU     0 **** LEU E 356
     2 LEU357     20 RESIDUE           4 E     LEU     0 **** LEU E 357
     3 AR7358     39 GROUP             4 E     AR7     0 **** AR7 E 358
