@<TRIPOS>MOLECULE
4tmb_FMN_1_ligand
   50    52     1     0     0
SMALL
NO_CHARGES


@<TRIPOS>ATOM
     1 N1          61.5300    45.9260   -17.3960 N.2          1 FMN501   0.0000
     2 C2          61.3630    46.8000   -18.3640 C.2          1 FMN501   0.0000
     3 O2          62.4090    47.0460   -19.0630 O.2          1 FMN501   0.0000
     4 N3          60.1960    47.4120   -18.5980 N.pl3        1 FMN501   0.0000
     5 C4          59.0470    47.2220   -17.8740 C.2          1 FMN501   0.0000
     6 O4          58.0150    47.9740   -18.0870 O.2          1 FMN501   0.0000
     7 C4A         59.1640    46.2780   -16.7670 C.2          1 FMN501   0.0000
     8 N5          58.1150    45.9170   -15.9520 N.2          1 FMN501   0.0000
     9 C5A         58.2220    45.0680   -14.9430 C.ar         1 FMN501   0.0000
    10 C6          57.1070    44.8850   -14.0690 C.ar         1 FMN501   0.0000
    11 C7          57.1870    43.9900   -13.0280 C.ar         1 FMN501   0.0000
    12 C7M         56.0030    43.7440   -12.1450 C.3          1 FMN501   0.0000
    13 C8          58.4900    43.3190   -12.7330 C.ar         1 FMN501   0.0000
    14 C8M         58.6110    42.3750   -11.5660 C.3          1 FMN501   0.0000
    15 C9          59.6180    43.5580   -13.5440 C.ar         1 FMN501   0.0000
    16 C9A         59.5230    44.4430   -14.6430 C.ar         1 FMN501   0.0000
    17 N10         60.6550    44.7630   -15.4950 N.pl3        1 FMN501   0.0000
    18 C10         60.4970    45.6450   -16.5390 C.2          1 FMN501   0.0000
    19 C1'         61.9460    44.0970   -15.1840 C.3          1 FMN501   0.0000
    20 C2'         62.5940    45.0490   -14.0780 C.3          1 FMN501   0.0000
    21 O2'         62.9060    46.3670   -14.5460 O.3          1 FMN501   0.0000
    22 C3'         63.9110    44.4920   -13.5350 C.3          1 FMN501   0.0000
    23 O3'         64.8700    44.2980   -14.6520 O.3          1 FMN501   0.0000
    24 C4'         63.6370    43.1330   -12.8530 C.3          1 FMN501   0.0000
    25 O4'         62.5250    43.2480   -11.9580 O.3          1 FMN501   0.0000
    26 C5'         64.8090    42.5600   -12.0450 C.3          1 FMN501   0.0000
    27 O5'         65.1520    43.4880   -10.9850 O.3          1 FMN501   0.0000
    28 P           64.8230    43.0990    -9.4070 P.3          1 FMN501   0.0000
    29 O1P         65.4260    44.2080    -8.5010 O.co2        1 FMN501   0.0000
    30 O2P         65.5130    41.7770    -9.1060 O.co2        1 FMN501  -1.0000
    31 O3P         63.2810    43.0190    -9.3810 O.co2        1 FMN501  -1.0000
    32 H1          60.1590    48.0582   -19.3602 H            1 FMN501   0.0000
    33 H2          56.2673    45.4083   -14.2143 H            1 FMN501   0.0000
    34 H7M1        56.2420    43.0684   -11.4475 H            1 FMN501   0.0000
    35 H7M2        55.7340    44.5993   -11.7022 H            1 FMN501   0.0000
    36 H7M3        55.2423    43.4000   -12.6955 H            1 FMN501   0.0000
    37 H8M1        59.5451    42.0212   -11.5189 H            1 FMN501   0.0000
    38 H8M2        58.3960    42.8621   -10.7195 H            1 FMN501   0.0000
    39 H8M3        57.9722    41.6148   -11.6846 H            1 FMN501   0.0000
    40 H9          60.4848    43.1020   -13.3423 H            1 FMN501   0.0000
    41 H1'1        62.5268    44.0447   -15.9963 H            1 FMN501   0.0000
    42 H1'2        61.7963    43.1771   -14.8215 H            1 FMN501   0.0000
    43 H2'         61.9500    45.1302   -13.3173 H            1 FMN501   0.0000
    44 H13         62.0701    46.8143   -14.8643 H            1 FMN501   0.0000
    45 H3'         64.2963    45.1304   -12.8687 H            1 FMN501   0.0000
    46 H15         65.7297    43.9339   -14.2938 H            1 FMN501   0.0000
    47 H4'         63.3968    42.4717   -13.5636 H            1 FMN501   0.0000
    48 H17         62.8194    43.0211   -11.0297 H            1 FMN501   0.0000
    49 H5'1        65.5982    42.4306   -12.6453 H            1 FMN501   0.0000
    50 H5'2        64.5443    41.6811   -11.6482 H            1 FMN501   0.0000
@<TRIPOS>BOND
     1    1    2       1
     2    1   18       2
     3    2    3       2
     4    2    4       1
     5    4    5       1
     6    5    6       2
     7    5    7       1
     8    7    8       2
     9    7   18       1
    10    8    9       1
    11    9   10      ar
    12    9   16      ar
    13   10   11      ar
    14   11   12       1
    15   11   13      ar
    16   13   14       1
    17   13   15      ar
    18   15   16      ar
    19   16   17       1
    20   17   18       1
    21   17   19       1
    22   19   20       1
    23   20   21       1
    24   20   22       1
    25   22   23       1
    26   22   24       1
    27   24   25       1
    28   24   26       1
    29   26   27       1
    30   27   28       1
    31   28   29      ar
    32   28   30      ar
    33   28   31      ar
    34    4   32       1
    35   10   33       1
    36   12   34       1
    37   12   35       1
    38   12   36       1
    39   14   37       1
    40   14   38       1
    41   14   39       1
    42   15   40       1
    43   19   41       1
    44   19   42       1
    45   20   43       1
    46   21   44       1
    47   22   45       1
    48   23   46       1
    49   24   47       1
    50   25   48       1
    51   26   49       1
    52   26   50       1
@<TRIPOS>SUBSTRUCTURE
     1 FMN501      1 GROUP             4 A     FMN     0 **** FMN A 501
