@<TRIPOS>MOLECULE
1b5e_DCM_2_ligand
   32    33     1     0     0
SMALL
NO_CHARGES


@<TRIPOS>ATOM
     1 N1          30.2130    -0.8770    -1.9610 N.pl3        1 DCM400   0.0000
     2 C2          29.1210    -1.7320    -1.7380 C.2          1 DCM400   0.0000
     3 N3          29.2840    -2.8240    -0.9670 N.2          1 DCM400   0.0000
     4 C4          30.4980    -3.1200    -0.4710 C.2          1 DCM400   0.0000
     5 C5          31.6270    -2.2740    -0.6810 C.2          1 DCM400   0.0000
     6 C6          31.4450    -1.1700    -1.4300 C.2          1 DCM400   0.0000
     7 O2          28.0300    -1.4590    -2.2600 O.2          1 DCM400   0.0000
     8 N4          30.6280    -4.2520     0.2340 N.pl3        1 DCM400   0.0000
     9 C1'         30.0740     0.2060    -2.9560 C.3          1 DCM400   0.0000
    10 C2'         29.0590     1.2840    -2.5830 C.3          1 DCM400   0.0000
    11 C3'         29.5880     2.4580    -3.3950 C.3          1 DCM400   0.0000
    12 C4'         31.0910     2.3050    -3.2410 C.3          1 DCM400   0.0000
    13 O4'         31.3160     0.8780    -3.0610 O.3          1 DCM400   0.0000
    14 O3'         29.2560     2.3310    -4.7730 O.3          1 DCM400   0.0000
    15 C5'         31.7000     3.0830    -2.0940 C.3          1 DCM400   0.0000
    16 O5'         31.8150     4.4860    -2.4610 O.3          1 DCM400   0.0000
    17 P           31.5820     5.6630    -1.4040 P.3          1 DCM400   0.0000
    18 O1P         30.1260     5.4930    -1.0830 O.co2        1 DCM400   0.0000
    19 O2P         32.5560     5.2890    -0.3380 O.co2        1 DCM400  -1.0000
    20 O3P         31.9570     6.8010    -2.2880 O.co2        1 DCM400  -1.0000
    21 H1          32.5197    -2.4925    -0.2869 H            1 DCM400   0.0000
    22 H2          32.2158    -0.5565    -1.6015 H            1 DCM400   0.0000
    23 H3          31.5168    -4.5030     0.6174 H            1 DCM400   0.0000
    24 H4          29.8362    -4.8459     0.3767 H            1 DCM400   0.0000
    25 H1'         29.8318    -0.1864    -3.8434 H            1 DCM400   0.0000
    26 H2'1        29.0710     1.4785    -1.6022 H            1 DCM400   0.0000
    27 H2'2        28.1325     1.0306    -2.8613 H            1 DCM400   0.0000
    28 H3'         29.2708     3.3303    -3.0230 H            1 DCM400   0.0000
    29 H4'         31.5305     2.5931    -4.0918 H            1 DCM400   0.0000
    30 H10         29.2007     1.3622    -5.0146 H            1 DCM400   0.0000
    31 H5'1        32.6079     2.7173    -1.8890 H            1 DCM400   0.0000
    32 H5'2        31.1161     2.9972    -1.2868 H            1 DCM400   0.0000
@<TRIPOS>BOND
     1    1    2       1
     2    1    6       1
     3    1    9       1
     4    2    3       1
     5    2    7       2
     6    3    4       2
     7    4    5       1
     8    4    8       1
     9    5    6       2
    10    9   10       1
    11    9   13       1
    12   10   11       1
    13   11   12       1
    14   11   14       1
    15   12   13       1
    16   12   15       1
    17   15   16       1
    18   16   17       1
    19   17   18      ar
    20   17   19      ar
    21   17   20      ar
    22    5   21       1
    23    6   22       1
    24    8   23       1
    25    8   24       1
    26    9   25       1
    27   10   26       1
    28   10   27       1
    29   11   28       1
    30   12   29       1
    31   14   30       1
    32   15   31       1
    33   15   32       1
@<TRIPOS>SUBSTRUCTURE
     1 DCM400      1 GROUP             4 B     DCM     0 **** DCM B 400
