@<TRIPOS>MOLECULE
4pk4_ADP_1_ligand
   39    41     1     0     0
SMALL
NO_CHARGES


@<TRIPOS>ATOM
     1 PB          23.5700   -17.9860    -9.7290 P.3          1 ADP801   0.0000
     2 O1B         23.3980   -18.5450   -11.1530 O.co2        1 ADP801   0.0000
     3 O2B         24.7390   -18.7160    -9.0880 O.co2        1 ADP801  -1.0000
     4 O3B         22.3490   -18.0140    -8.8780 O.co2        1 ADP801  -1.0000
     5 PA          23.8290   -15.0820    -9.3570 P.3          1 ADP801   0.0000
     6 O1A         22.6360   -14.4270    -9.9400 O.co2        1 ADP801   0.0000
     7 O2A         23.6850   -15.3040    -7.8460 O.co2        1 ADP801  -1.0000
     8 O3A         24.0820   -16.5060   -10.0200 O.3          1 ADP801   0.0000
     9 O5'         25.1330   -14.2500    -9.6610 O.3          1 ADP801   0.0000
    10 C5'         26.1300   -14.0630    -8.6460 C.3          1 ADP801   0.0000
    11 C4'         26.6740   -12.6610    -8.7040 C.3          1 ADP801   0.0000
    12 O4'         27.0490   -12.3410   -10.0600 O.3          1 ADP801   0.0000
    13 C3'         25.7430   -11.5360    -8.2640 C.3          1 ADP801   0.0000
    14 O3'         25.7430   -11.3510    -6.8500 O.3          1 ADP801   0.0000
    15 C2'         26.3310   -10.3360    -9.0010 C.3          1 ADP801   0.0000
    16 O2'         27.4310    -9.7370    -8.3180 O.3          1 ADP801   0.0000
    17 C1'         26.7740   -10.9770   -10.3240 C.3          1 ADP801   0.0000
    18 N9          25.7790   -10.9040   -11.3900 N.pl3        1 ADP801   0.0000
    19 C8          25.1120   -11.9500   -11.9690 C.2          1 ADP801   0.0000
    20 N7          24.3300   -11.6010   -12.9600 N.2          1 ADP801   0.0000
    21 C5          24.4850   -10.2250   -13.0320 C.ar         1 ADP801   0.0000
    22 C6          23.9330    -9.2510   -13.8890 C.ar         1 ADP801   0.0000
    23 N6          23.1720    -9.5450   -14.9460 N.pl3        1 ADP801   0.0000
    24 N1          24.2620    -7.9580   -13.6650 N.ar         1 ADP801   0.0000
    25 C2          25.0970    -7.6690   -12.6610 C.ar         1 ADP801   0.0000
    26 N3          25.7020    -8.5030   -11.8090 N.ar         1 ADP801   0.0000
    27 C4          25.3570    -9.7780   -12.0550 C.ar         1 ADP801   0.0000
    28 H5'1        26.8758   -14.7130    -8.7918 H            1 ADP801   0.0000
    29 H5'2        25.7205   -14.2215    -7.7476 H            1 ADP801   0.0000
    30 H4'         27.4968   -12.6232    -8.1369 H            1 ADP801   0.0000
    31 H3'         24.8134   -11.7145    -8.5864 H            1 ADP801   0.0000
    32 H5          25.0351   -11.9252    -6.4387 H            1 ADP801   0.0000
    33 H2'         25.6193    -9.6543    -9.1707 H            1 ADP801   0.0000
    34 H7          27.7701    -8.9604    -8.8490 H            1 ADP801   0.0000
    35 H1'         27.6139   -10.5316   -10.6342 H            1 ADP801   0.0000
    36 H9          25.2129   -12.8965   -11.6625 H            1 ADP801   0.0000
    37 H10         22.8073    -8.8112   -15.5191 H            1 ADP801   0.0000
    38 H11         22.9668   -10.4990   -15.1645 H            1 ADP801   0.0000
    39 H12         25.2957    -6.6978   -12.5298 H            1 ADP801   0.0000
@<TRIPOS>BOND
     1    1    2      ar
     2    1    3      ar
     3    1    4      ar
     4    1    8       1
     5    5    6      ar
     6    5    7      ar
     7    5    8       1
     8    5    9       1
     9    9   10       1
    10   10   11       1
    11   11   12       1
    12   11   13       1
    13   12   17       1
    14   13   14       1
    15   13   15       1
    16   15   16       1
    17   15   17       1
    18   17   18       1
    19   18   19       1
    20   18   27       1
    21   19   20       2
    22   20   21       1
    23   21   22      ar
    24   21   27      ar
    25   22   23       1
    26   22   24      ar
    27   24   25      ar
    28   25   26      ar
    29   26   27      ar
    30   25   39       1
    31   23   38       1
    32   23   37       1
    33   10   28       1
    34   10   29       1
    35   11   30       1
    36   13   31       1
    37   14   32       1
    38   15   33       1
    39   16   34       1
    40   17   35       1
    41   19   36       1
@<TRIPOS>SUBSTRUCTURE
     1 ADP801      1 GROUP             4 A     ADP     0 **** ADP A 801
