@<TRIPOS>MOLECULE
4y17_LAE_3_ligand
   36    36     1     0     0
SMALL
NO_CHARGES


@<TRIPOS>ATOM
     1 C1          10.1270    19.3160     8.1900 C.3          1 LAE301   0.0000
     2 C2          11.0930    19.0990     9.2630 C.2          1 LAE301   0.0000
     3 O3          10.5990    18.0000    10.1220 O.3          1 LAE301   0.0000
     4 C4           9.4240    17.5450     9.6060 C.3          1 LAE301   0.0000
     5 C5           9.3640    18.0220     8.1930 C.3          1 LAE301   0.0000
     6 O10         12.1290    19.7140     9.4250 O.2          1 LAE301   0.0000
     7 N11         10.7900    19.4770     6.9730 N.am         1 LAE301   0.0000
     8 C13         11.0180    20.7820     6.4600 C.2          1 LAE301   0.0000
     9 C14         11.7340    20.9600     5.1420 C.3          1 LAE301   0.0000
    10 C15         12.8120    19.9080     5.0430 C.2          1 LAE301   0.0000
    11 C18         14.0540    20.0010     5.9020 C.3          1 LAE301   0.0000
    12 C19         15.2210    20.4380     5.0440 C.3          1 LAE301   0.0000
    13 C22         16.5130    19.9380     5.6530 C.3          1 LAE301   0.0000
    14 C25         16.6600    20.4870     7.0550 C.3          1 LAE301   0.0000
    15 C28         18.0140    20.0990     7.6060 C.3          1 LAE301   0.0000
    16 O35         10.6390    21.7580     7.0750 O.2          1 LAE301   0.0000
    17 O36         12.6720    18.9830     4.2730 O.2          1 LAE301   0.0000
    18 H1           9.5297    20.0935     8.3870 H            1 LAE301   0.0000
    19 H2           8.6535    17.9123    10.1269 H            1 LAE301   0.0000
    20 H3           9.3991    16.5457     9.6339 H            1 LAE301   0.0000
    21 H4           9.7928    17.3591     7.5792 H            1 LAE301   0.0000
    22 H5           8.4160    18.1717     7.9120 H            1 LAE301   0.0000
    23 H6          11.1038    18.6760     6.4632 H            1 LAE301   0.0000
    24 H7          12.1452    21.8706     5.1008 H            1 LAE301   0.0000
    25 H8          11.0861    20.8524     4.3879 H            1 LAE301   0.0000
    26 H9          14.2506    19.1065     6.3036 H            1 LAE301   0.0000
    27 H10         13.9068    20.6688     6.6316 H            1 LAE301   0.0000
    28 H11         15.2414    21.4365     4.9932 H            1 LAE301   0.0000
    29 H12         15.1181    20.0595     4.1242 H            1 LAE301   0.0000
    30 H13         17.2841    20.2427     5.0939 H            1 LAE301   0.0000
    31 H14         16.5000    18.9387     5.6867 H            1 LAE301   0.0000
    32 H15         15.9413    20.1089     7.6386 H            1 LAE301   0.0000
    33 H16         16.5817    21.4837     7.0331 H            1 LAE301   0.0000
    34 H17         18.1129    20.4611     8.5329 H            1 LAE301   0.0000
    35 H18         18.0920    19.1023     7.6275 H            1 LAE301   0.0000
    36 H19         18.7323    20.4771     7.0220 H            1 LAE301   0.0000
@<TRIPOS>BOND
     1    1    2       1
     2    1    5       1
     3    1    7       1
     4    2    3       1
     5    2    6       2
     6    3    4       1
     7    4    5       1
     8    7    8      am
     9    8    9       1
    10    8   16       2
    11    9   10       1
    12   10   11       1
    13   10   17       2
    14   11   12       1
    15   12   13       1
    16   13   14       1
    17   14   15       1
    18    1   18       1
    19    4   19       1
    20    4   20       1
    21    5   21       1
    22    5   22       1
    23    7   23       1
    24    9   24       1
    25    9   25       1
    26   11   26       1
    27   11   27       1
    28   12   28       1
    29   12   29       1
    30   13   30       1
    31   13   31       1
    32   14   32       1
    33   14   33       1
    34   15   34       1
    35   15   35       1
    36   15   36       1
@<TRIPOS>SUBSTRUCTURE
     1 LAE301      1 GROUP             4 C     LAE     0 **** LAE C 301
