@<TRIPOS>MOLECULE
2c47_5ID_3_ligand
   33    35     1     0     0
SMALL
NO_CHARGES


@<TRIPOS>ATOM
     1 O5'         49.7060    25.7780    62.4670 O.3          1 5ID1300   0.0000
     2 C5'         49.0040    25.7590    61.1820 C.3          1 5ID1300   0.0000
     3 C4'         47.4590    25.7420    61.3280 C.3          1 5ID1300   0.0000
     4 O4'         46.6190    26.1390    60.1710 O.3          1 5ID1300   0.0000
     5 C1'         45.2720    25.5750    60.5070 C.3          1 5ID1300   0.0000
     6 N9          44.6450    24.5940    59.5260 N.pl3        1 5ID1300   0.0000
     7 C8          44.3720    24.9270    58.2660 C.2          1 5ID1300   0.0000
     8 C7          43.8140    23.8900    57.6350 C.2          1 5ID1300   0.0000
     9 C5          43.6980    22.8160    58.5270 C.ar         1 5ID1300   0.0000
    10 C6          43.2120    21.4850    58.4850 C.ar         1 5ID1300   0.0000
    11 N1          43.2820    20.7320    59.6000 N.ar         1 5ID1300   0.0000
    12 C2          43.8000    21.2290    60.7200 C.ar         1 5ID1300   0.0000
    13 N3          44.2680    22.4720    60.7850 N.ar         1 5ID1300   0.0000
    14 C4          44.2390    23.3100    59.7220 C.ar         1 5ID1300   0.0000
    15 N6          42.6810    20.9340    57.3860 N.pl3        1 5ID1300   0.0000
    16 C2'         45.4530    24.8540    61.8530 C.3          1 5ID1300   0.0000
    17 O2'         45.4010    25.8160    62.9250 O.3          1 5ID1300   0.0000
    18 C3'         46.8650    24.3550    61.6240 C.3          1 5ID1300   0.0000
    19 O3'         47.4110    23.7090    62.7860 O.3          1 5ID1300   0.0000
    20 IAE         43.2340    23.9950    55.5930 I            1 5ID1300   0.0000
    21 H5'         50.5878    25.3162    62.3719 H            1 5ID1300   0.0000
    22 H5'1        49.2845    24.9415    60.6789 H            1 5ID1300   0.0000
    23 H5'2        49.2652    26.5744    60.6653 H            1 5ID1300   0.0000
    24 H4'         47.2217    26.3412    62.0927 H            1 5ID1300   0.0000
    25 H1'         44.6368    26.3357    60.6405 H            1 5ID1300   0.0000
    26 H6          44.5569    25.8192    57.8540 H            1 5ID1300   0.0000
    27 H7          43.8385    20.6518    61.5357 H            1 5ID1300   0.0000
    28 H8          42.3523    19.9898    57.4089 H            1 5ID1300   0.0000
    29 H9          42.6132    21.4667    56.5424 H            1 5ID1300   0.0000
    30 H2'         44.7994    24.1075    61.9775 H            1 5ID1300   0.0000
    31 H11         45.5188    25.3466    63.8001 H            1 5ID1300   0.0000
    32 H3'         46.9141    23.7604    60.8215 H            1 5ID1300   0.0000
    33 H13         48.1009    24.3007    63.2031 H            1 5ID1300   0.0000
@<TRIPOS>BOND
     1    1    2       1
     2    2    3       1
     3    3    4       1
     4    3   18       1
     5    4    5       1
     6    5    6       1
     7    5   16       1
     8    6    7       1
     9    6   14       1
    10    7    8       2
    11    8    9       1
    12    8   20       1
    13    9   10      ar
    14    9   14      ar
    15   10   11      ar
    16   10   15       1
    17   11   12      ar
    18   12   13      ar
    19   13   14      ar
    20   16   17       1
    21   16   18       1
    22   18   19       1
    23    1   21       1
    24    2   22       1
    25    2   23       1
    26    3   24       1
    27    5   25       1
    28    7   26       1
    29   12   27       1
    30   15   28       1
    31   15   29       1
    32   16   30       1
    33   17   31       1
    34   18   32       1
    35   19   33       1
@<TRIPOS>SUBSTRUCTURE
     1 5ID1300     1 GROUP             4 C     5ID     0 **** 5ID C1300
