@<TRIPOS>MOLECULE
5hpy_GDP_2_ligand
   40    42     1     0     0
SMALL
NO_CHARGES


@<TRIPOS>ATOM
     1 PB         -46.6780    36.2370    18.2180 P.3          1 GDP202   0.0000
     2 O1B        -46.0010    35.4040    17.1550 O.co2        1 GDP202   0.0000
     3 O2B        -47.7370    37.0920    17.5790 O.co2        1 GDP202  -1.0000
     4 O3B        -47.2660    35.3640    19.2920 O.co2        1 GDP202  -1.0000
     5 O3A        -45.6140    37.1950    18.9290 O.3          1 GDP202   0.0000
     6 PA         -46.0940    38.2670    20.0270 P.3          1 GDP202   0.0000
     7 O1A        -46.0900    39.6240    19.3620 O.co2        1 GDP202   0.0000
     8 O2A        -47.4610    37.9450    20.5800 O.co2        1 GDP202  -1.0000
     9 O5'        -44.9670    38.1680    21.1710 O.3          1 GDP202   0.0000
    10 C5'        -45.1150    37.2310    22.2450 C.3          1 GDP202   0.0000
    11 C4'        -44.2290    37.6410    23.4130 C.3          1 GDP202   0.0000
    12 O4'        -42.9010    37.8810    22.9440 O.3          1 GDP202   0.0000
    13 C3'        -44.7380    38.9310    24.0270 C.3          1 GDP202   0.0000
    14 O3'        -44.9740    38.7450    25.4250 O.3          1 GDP202   0.0000
    15 C2'        -43.6340    39.9460    23.8440 C.3          1 GDP202   0.0000
    16 O2'        -43.4170    40.6020    25.0960 O.3          1 GDP202   0.0000
    17 C1'        -42.4150    39.1420    23.4090 C.3          1 GDP202   0.0000
    18 N9         -41.6900    39.8550    22.3210 N.pl3        1 GDP202   0.0000
    19 C8         -42.1860    40.1940    21.1130 C.2          1 GDP202   0.0000
    20 N7         -41.2660    40.8420    20.3480 N.2          1 GDP202   0.0000
    21 C5         -40.1330    40.9190    21.0740 C.2          1 GDP202   0.0000
    22 C6         -38.7670    41.4730    20.8770 C.2          1 GDP202   0.0000
    23 O6         -38.4350    42.0450    19.8140 O.2          1 GDP202   0.0000
    24 N1         -37.8880    41.3440    21.8830 N.pl3        1 GDP202   0.0000
    25 C2         -38.2080    40.7380    23.0440 C.2          1 GDP202   0.0000
    26 N2         -37.2670    40.6450    24.0160 N.pl3        1 GDP202   0.0000
    27 N3         -39.4330    40.2100    23.2930 N.2          1 GDP202   0.0000
    28 C4         -40.4210    40.2680    22.3660 C.2          1 GDP202   0.0000
    29 H5'1       -44.8485    36.3201    21.9299 H            1 GDP202   0.0000
    30 H5'2       -46.0697    37.2148    22.5422 H            1 GDP202   0.0000
    31 H4'        -44.2199    36.9170    24.1028 H            1 GDP202   0.0000
    32 H3'        -45.5729    39.2334    23.5671 H            1 GDP202   0.0000
    33 H5         -44.4012    39.3772    25.9468 H            1 GDP202   0.0000
    34 H2'        -43.8836    40.6107    23.1399 H            1 GDP202   0.0000
    35 H7         -43.5807    41.5829    24.9911 H            1 GDP202   0.0000
    36 H1'        -41.8045    39.0033    24.1888 H            1 GDP202   0.0000
    37 H9         -43.1192    39.9929    20.8151 H            1 GDP202   0.0000
    38 H10        -36.9645    41.7098    21.7675 H            1 GDP202   0.0000
    39 H11        -37.4867    40.1988    24.8836 H            1 GDP202   0.0000
    40 H12        -36.3534    41.0226    23.8652 H            1 GDP202   0.0000
@<TRIPOS>BOND
     1    1    2      ar
     2    1    3      ar
     3    1    4      ar
     4    1    5       1
     5    5    6       1
     6    6    7      ar
     7    6    8      ar
     8    6    9       1
     9    9   10       1
    10   10   11       1
    11   11   12       1
    12   11   13       1
    13   12   17       1
    14   13   14       1
    15   13   15       1
    16   15   16       1
    17   15   17       1
    18   17   18       1
    19   18   19       1
    20   18   28       1
    21   19   20       2
    22   20   21       1
    23   21   22       1
    24   21   28       2
    25   22   23       2
    26   22   24       1
    27   24   25       1
    28   25   26       1
    29   25   27       2
    30   27   28       1
    31   26   40       1
    32   26   39       1
    33   24   38       1
    34   10   29       1
    35   10   30       1
    36   11   31       1
    37   13   32       1
    38   14   33       1
    39   15   34       1
    40   16   35       1
    41   17   36       1
    42   19   37       1
@<TRIPOS>SUBSTRUCTURE
     1 GDP202      1 GROUP             4 F     GDP     0 **** GDP F 202
