@<TRIPOS>MOLECULE
1t84_WSK_1_ligand
   41    43     1     0     0
SMALL
NO_CHARGES


@<TRIPOS>ATOM
     1 C0          -6.7750     8.0320     2.7800 C.ar         1 WSK108   0.0000
     2 N0          -4.7210     7.7790    -0.9580 N.pl3        1 WSK108   0.0000
     3 O0          -3.0640     9.3170    -3.2650 O.3          1 WSK108   0.0000
     4 C1          -7.4390     8.6850     1.6380 C.ar         1 WSK108   0.0000
     5 N1          -4.9990     9.8730    -5.0680 N.4          1 WSK108   1.0000
     6 C2          -6.8560     8.6690     0.3180 C.ar         1 WSK108   0.0000
     7 C3          -5.5640     7.9830     0.1360 C.ar         1 WSK108   0.0000
     8 C4          -4.9070     7.3340     1.2710 C.ar         1 WSK108   0.0000
     9 C5          -5.5130     7.3530     2.6140 C.ar         1 WSK108   0.0000
    10 C6          -3.6890     6.7550     0.7970 C.ar         1 WSK108   0.0000
    11 C7          -3.5790     7.0430    -0.6290 C.ar         1 WSK108   0.0000
    12 C8          -2.3990     6.5860    -1.3860 C.ar         1 WSK108   0.0000
    13 C9          -1.3840     5.8270    -0.6850 C.ar         1 WSK108   0.0000
    14 C10         -1.5160     5.5360     0.7590 C.ar         1 WSK108   0.0000
    15 C11         -2.6510     5.9880     1.4930 C.ar         1 WSK108   0.0000
    16 C12         -5.0140     8.2550    -2.3270 C.3          1 WSK108   0.0000
    17 C13         -4.3530     9.5630    -2.5880 C.3          1 WSK108   0.0000
    18 C14         -5.2030    10.3740    -3.7110 C.3          1 WSK108   0.0000
    19 C15         -6.2460     9.7510    -5.8170 C.3          1 WSK108   0.0000
    20 C16         -4.0870    10.7370    -5.8100 C.3          1 WSK108   0.0000
    21 BR1         -0.2000     4.5430     1.6950 Br           1 WSK108   0.0000
    22 BR2         -7.5890     8.0800     4.4860 Br           1 WSK108   0.0000
    23 H1          -2.6104    10.1897    -3.4456 H            1 WSK108   0.0000
    24 H2          -8.3130     9.1495     1.7809 H            1 WSK108   0.0000
    25 H3          -7.3159     9.1111    -0.4521 H            1 WSK108   0.0000
    26 H4          -5.0625     6.9081     3.3880 H            1 WSK108   0.0000
    27 H5          -2.3020     6.7949    -2.3591 H            1 WSK108   0.0000
    28 H6          -0.5834     5.4953    -1.1840 H            1 WSK108   0.0000
    29 H7          -2.7382     5.7851     2.4683 H            1 WSK108   0.0000
    30 H8          -6.0028     8.3612    -2.4320 H            1 WSK108   0.0000
    31 H9          -4.6792     7.5818    -2.9863 H            1 WSK108   0.0000
    32 H10         -4.2382    10.0965    -1.7500 H            1 WSK108   0.0000
    33 H11         -6.1750    10.2987    -3.4882 H            1 WSK108   0.0000
    34 H12         -4.9282    11.3351    -3.6834 H            1 WSK108   0.0000
    35 H13         -6.0510     9.4056    -6.7350 H            1 WSK108   0.0000
    36 H14         -6.8576     9.1161    -5.3449 H            1 WSK108   0.0000
    37 H15         -6.6836    10.6477    -5.8842 H            1 WSK108   0.0000
    38 H16         -3.9627    10.3752    -6.7339 H            1 WSK108   0.0000
    39 H17         -4.4698    11.6594    -5.8619 H            1 WSK108   0.0000
    40 H18         -3.2035    10.7686    -5.3427 H            1 WSK108   0.0000
    41 H19         -4.5845     8.9651    -5.0049 H            1 WSK108   0.0000
@<TRIPOS>BOND
     1    1    4      ar
     2    1    9      ar
     3    1   22       1
     4    2    7       1
     5    2   11       1
     6    2   16       1
     7    3   17       1
     8    4    6      ar
     9    5   18       1
    10    5   19       1
    11    5   20       1
    12    6    7      ar
    13    7    8      ar
    14    8    9      ar
    15    8   10       1
    16   10   11      ar
    17   10   15      ar
    18   11   12      ar
    19   12   13      ar
    20   13   14      ar
    21   14   15      ar
    22   14   21       1
    23   16   17       1
    24   17   18       1
    25    3   23       1
    26    4   24       1
    27    6   25       1
    28    9   26       1
    29   12   27       1
    30   13   28       1
    31   15   29       1
    32   16   30       1
    33   16   31       1
    34   17   32       1
    35   18   33       1
    36   18   34       1
    37   19   35       1
    38   19   36       1
    39   19   37       1
    40   20   38       1
    41   20   39       1
    42   20   40       1
    43    5   41       1
@<TRIPOS>SUBSTRUCTURE
     1 WSK108      1 GROUP             4 A     WSK     0 **** WSK A 108
