@<TRIPOS>MOLECULE
4dmm_NAP_3_ligand
   73    77     1     0     0
SMALL
NO_CHARGES


@<TRIPOS>ATOM
     1 PA           5.5220    45.0580    50.1560 P.3          1 NAP301   0.0000
     2 O1A          6.0130    45.8430    51.3660 O.co2        1 NAP301   0.0000
     3 O2A          3.9920    44.3870    50.1830 O.co2        1 NAP301  -1.0000
     4 O5B          5.8690    43.6400    51.0660 O.3          1 NAP301   0.0000
     5 C5B          7.0850    43.4360    51.9350 C.3          1 NAP301   0.0000
     6 C4B          7.1550    42.0580    52.7050 C.3          1 NAP301   0.0000
     7 O4B          8.3880    42.0420    53.4840 O.3          1 NAP301   0.0000
     8 C3B          6.0200    41.8490    53.7340 C.3          1 NAP301   0.0000
     9 O3B          5.4220    40.5520    53.5780 O.3          1 NAP301   0.0000
    10 C2B          6.7300    41.9720    55.0850 C.3          1 NAP301   0.0000
    11 O2B          6.0890    41.1930    56.1000 O.3          1 NAP301   0.0000
    12 C1B          8.1050    41.4260    54.7620 C.3          1 NAP301   0.0000
    13 N9A          9.1010    41.8960    55.7490 N.pl3        1 NAP301   0.0000
    14 C8A          9.3440    43.1870    56.0240 C.2          1 NAP301   0.0000
    15 N7A         10.2950    43.2490    56.9690 N.2          1 NAP301   0.0000
    16 C5A         10.6670    42.0100    57.2920 C.ar         1 NAP301   0.0000
    17 C6A         11.6080    41.4880    58.1970 C.ar         1 NAP301   0.0000
    18 N6A         12.3540    42.3030    58.9460 N.pl3        1 NAP301   0.0000
    19 N1A         11.7350    40.1400    58.2860 N.ar         1 NAP301   0.0000
    20 C2A         10.9750    39.3180    57.5500 C.ar         1 NAP301   0.0000
    21 N3A         10.0770    39.8060    56.6940 N.ar         1 NAP301   0.0000
    22 C4A          9.9040    41.1390    56.5220 C.ar         1 NAP301   0.0000
    23 O3           6.6890    44.2790    49.1740 O.3          1 NAP301   0.0000
    24 PN           6.6180    43.8700    47.5510 P.3          1 NAP301   0.0000
    25 O1N          6.4510    45.0810    46.6860 O.co2        1 NAP301   0.0000
    26 O2N          5.6800    42.7100    47.4140 O.co2        1 NAP301  -1.0000
    27 O5D          8.1680    43.3740    47.4420 O.3          1 NAP301   0.0000
    28 C5D          8.6600    42.0060    47.6440 C.3          1 NAP301   0.0000
    29 C4D         10.0940    41.8160    47.0760 C.3          1 NAP301   0.0000
    30 O4D         10.1860    42.2120    45.6430 O.3          1 NAP301   0.0000
    31 C3D         11.1260    42.7000    47.8380 C.3          1 NAP301   0.0000
    32 O3D         12.4420    42.0890    47.9320 O.3          1 NAP301   0.0000
    33 C2D         11.1550    43.9420    46.9530 C.3          1 NAP301   0.0000
    34 O2D         12.2620    44.7830    47.3180 O.3          1 NAP301   0.0000
    35 C1D         11.2250    43.2420    45.5490 C.3          1 NAP301   0.0000
    36 N1N         11.0380    44.1660    44.4180 N.ar         1 NAP301   1.0000
    37 C2N          9.8280    44.8700    44.3070 C.ar         1 NAP301   0.0000
    38 C3N          9.6490    45.7680    43.2480 C.ar         1 NAP301   0.0000
    39 C7N          8.2970    46.4930    43.1810 C.2          1 NAP301   0.0000
    40 O7N          8.0787    47.1977    42.1766 O.2          1 NAP301   0.0000
    41 N7N          7.4379    46.2775    44.2243 N.am         1 NAP301   0.0000
    42 C4N         10.6920    45.9770    42.3070 C.ar         1 NAP301   0.0000
    43 C5N         11.9030    45.2780    42.4100 C.ar         1 NAP301   0.0000
    44 C6N         12.0790    44.3530    43.4640 C.ar         1 NAP301   0.0000
    45 P2B          5.1610    42.0620    57.1510 P.3          1 NAP301   0.0000
    46 O1X          3.9440    42.4670    56.3740 O.co2        1 NAP301   0.0000
    47 O2X          4.9210    41.1270    58.5000 O.co2        1 NAP301  -1.0000
    48 O3X          6.0020    43.2770    57.8400 O.co2        1 NAP301  -1.0000
    49 H5B1         7.1029    44.1690    52.6150 H            1 NAP301   0.0000
    50 H5B2         7.8942    43.5030    51.3513 H            1 NAP301   0.0000
    51 H4B          7.1597    41.3036    52.0486 H            1 NAP301   0.0000
    52 H3B          5.3281    42.5646    53.6385 H            1 NAP301   0.0000
    53 H5           4.6920    40.4383    54.2520 H            1 NAP301   0.0000
    54 H2B          6.7898    42.9305    55.3638 H            1 NAP301   0.0000
    55 H1B          8.0973    40.4283    54.6949 H            1 NAP301   0.0000
    56 H8A          8.8926    43.9705    55.5969 H            1 NAP301   0.0000
    57 H6A1        13.0207    41.9226    59.5869 H            1 NAP301   0.0000
    58 H6A2        12.2462    43.2940    58.8662 H            1 NAP301   0.0000
    59 H2A         11.0824    38.3282    57.6437 H            1 NAP301   0.0000
    60 H5D1         8.0425    41.3689    47.1826 H            1 NAP301   0.0000
    61 H5D2         8.6717    41.8081    48.6241 H            1 NAP301   0.0000
    62 H4D         10.3567    40.8554    47.1669 H            1 NAP301   0.0000
    63 H3D         10.7827    42.9294    48.7488 H            1 NAP301   0.0000
    64 H16         12.4290    41.1980    47.4782 H            1 NAP301   0.0000
    65 H2D         10.2965    44.4470    47.0422 H            1 NAP301   0.0000
    66 H18         12.1671    45.0630    48.2733 H            1 NAP301   0.0000
    67 H1D         12.1146    42.7948    45.4560 H            1 NAP301   0.0000
    68 H2N          9.1004    44.7311    44.9787 H            1 NAP301   0.0000
    69 H7N1         6.5269    46.6898    44.2151 H            1 NAP301   0.0000
    70 H7N2         7.7211    45.7077    44.9957 H            1 NAP301   0.0000
    71 H4N         10.5610    46.6308    41.5618 H            1 NAP301   0.0000
    72 H5N         12.6340    45.4322    41.7452 H            1 NAP301   0.0000
    73 H6N         12.9296    43.8327    43.5396 H            1 NAP301   0.0000
@<TRIPOS>BOND
     1    1    2      ar
     2    1    3      ar
     3    1    4       1
     4    1   23       1
     5    4    5       1
     6    5    6       1
     7    6    7       1
     8    6    8       1
     9    7   12       1
    10    8    9       1
    11    8   10       1
    12   10   11       1
    13   10   12       1
    14   11   45       1
    15   12   13       1
    16   13   14       1
    17   13   22       1
    18   14   15       2
    19   15   16       1
    20   16   17      ar
    21   16   22      ar
    22   17   18       1
    23   17   19      ar
    24   19   20      ar
    25   20   21      ar
    26   21   22      ar
    27   23   24       1
    28   24   25      ar
    29   24   26      ar
    30   24   27       1
    31   27   28       1
    32   28   29       1
    33   29   30       1
    34   29   31       1
    35   30   35       1
    36   31   32       1
    37   31   33       1
    38   33   34       1
    39   33   35       1
    40   35   36       1
    41   36   37      ar
    42   36   44      ar
    43   37   38      ar
    44   38   39       1
    45   38   42      ar
    46   39   40       2
    47   39   41      am
    48   42   43      ar
    49   43   44      ar
    50   45   46      ar
    51   45   47      ar
    52   45   48      ar
    53   43   72       1
    54    5   49       1
    55    5   50       1
    56    6   51       1
    57    8   52       1
    58    9   53       1
    59   10   54       1
    60   12   55       1
    61   14   56       1
    62   18   57       1
    63   18   58       1
    64   20   59       1
    65   44   73       1
    66   28   60       1
    67   28   61       1
    68   29   62       1
    69   31   63       1
    70   32   64       1
    71   33   65       1
    72   34   66       1
    73   35   67       1
    74   37   68       1
    75   41   69       1
    76   41   70       1
    77   42   71       1
@<TRIPOS>SUBSTRUCTURE
     1 NAP301      1 GROUP             4 D     NAP     0 **** NAP D 301
