@<TRIPOS>MOLECULE
./coach420/3cag/ligand.pdb
 46 41 0 0 0
SMALL
GASTEIGER

@<TRIPOS>ATOM
      1  N        -12.2010   -3.5810  -12.8100 N.3   300  ARG300     -0.1208
      2  CA       -11.8580   -2.5130  -13.8290 C.3   300  ARG300      0.1944
      3  C        -12.2620   -1.1430  -13.3250 C.2   300  ARG300      0.3819
      4  O        -13.1530   -1.0590  -12.4540 O.co2 300  ARG300     -0.2441
      5  CB       -12.5700   -2.7610  -15.1500 C.3   300  ARG300      0.0343
      6  CG       -14.0850   -2.6440  -15.1000 C.3   300  ARG300      0.0490
      7  CD       -14.6090   -2.9800  -16.4660 C.3   300  ARG300      0.2205
      8  NE       -16.0500   -2.8810  -16.6540 N.pl3 300  ARG300     -0.0865
      9  CZ       -16.7160   -1.7770  -17.0280 C.cat 300  ARG300      0.5346
     10  NH1      -18.0160   -1.8390  -17.2470 N.pl3 300  ARG300      0.1354
     11  NH2      -16.1050   -0.6190  -17.1700 N.pl3 300  ARG300      0.1354
     12  OXT      -11.7060   -0.1340  -13.7660 O.co2 300  ARG300     -0.2441
     13  CA        -3.8010    7.5500  -17.8470 C.3   300  ARG300      0.1142
     14  C         -5.0330    6.6770  -17.8540 C.2   300  ARG300      0.3649
     15  O         -5.1860    5.8420  -18.7560 O.co2 300  ARG300     -0.2457
     16  CB        -4.1400    8.9210  -18.4320 C.3   300  ARG300      0.0155
     17  CG        -4.8040    8.9040  -19.8300 C.3   300  ARG300      0.0475
     18  CD        -4.9360   10.3190  -20.3040 C.3   300  ARG300      0.2204
     19  NE        -5.5680   10.4700  -21.6150 N.pl3 300  ARG300     -0.0865
     20  CZ        -6.8670   10.6520  -21.8290 C.cat 300  ARG300      0.5346
     21  NH1       -7.7470   10.5950  -20.8260 N.pl3 300  ARG300      0.1354
     22  NH2       -7.2960   10.8570  -23.0760 N.pl3 300  ARG300      0.1354
     23  OXT       -5.8820    6.8330  -16.9590 O.co2 300  ARG300     -0.2457
     24  CA       -16.1820   10.9760  -27.1120 C.3   300  ARG300      0.1142
     25  C        -16.0990   11.4590  -25.6570 C.2   300  ARG300      0.3649
     26  O        -15.5120   12.5100  -25.3840 O.co2 300  ARG300     -0.2457
     27  CB       -15.2450    9.7640  -27.3040 C.3   300  ARG300      0.0155
     28  CG       -13.7600   10.0240  -26.8950 C.3   300  ARG300      0.0475
     29  CD       -12.9700    8.7950  -27.1880 C.3   300  ARG300      0.2204
     30  NE       -11.5310    8.8620  -26.8970 N.pl3 300  ARG300     -0.0865
     31  CZ       -10.9640    8.5300  -25.7270 C.cat 300  ARG300      0.5346
     32  NH1      -11.7020    8.1700  -24.6750 N.pl3 300  ARG300      0.1354
     33  NH2       -9.6310    8.5670  -25.6110 N.pl3 300  ARG300      0.1354
     34  OXT      -16.5990   10.7790  -24.7500 O.co2 300  ARG300     -0.2457
     35  N        -13.5250   11.8600  -18.2700 N.3   400  ARG400      0.0000
     36  CA       -12.7120    4.3600  -19.7160 C.3   400  ARG400      0.1142
     37  C        -12.2550    3.5200  -20.9080 C.2   400  ARG400      0.3649
     38  O        -11.0910    3.1510  -21.0440 O.co2 400  ARG400     -0.2457
     39  CB       -13.1240    5.7710  -20.1570 C.3   400  ARG400      0.0155
     40  CG       -11.9960    6.6740  -20.6610 C.3   400  ARG400      0.0475
     41  CD       -11.3120    7.4080  -19.5320 C.3   400  ARG400      0.2204
     42  NE       -11.3110    8.8410  -19.7680 N.pl3 400  ARG400     -0.0865
     43  CZ       -12.3380    9.6410  -19.5130 C.cat 400  ARG400      0.5346
     44  NH1      -13.4630    9.1510  -18.9860 N.pl3 400  ARG400      0.1354
     45  NH2      -12.2320   10.9320  -19.7800 N.pl3 400  ARG400      0.1354
     46  OXT      -13.0700    3.1920  -21.7690 O.co2 400  ARG400     -0.2457
@<TRIPOS>BOND
     1     1     2    1
     2     2     5    1
     3     2     3    1
     4     3    12   ar
     5     3     4   ar
     6     5     6    1
     7     6     7    1
     8     7     8    1
     9     8     9    2
    10     9    10    1
    11     9    11    1
    12    13    16    1
    13    13    14    1
    14    14    15   ar
    15    14    23   ar
    16    16    17    1
    17    17    18    1
    18    18    19    1
    19    19    20    2
    20    20    22    1
    21    20    21    1
    22    24    27    1
    23    24    25    1
    24    25    26   ar
    25    25    34   ar
    26    27    28    1
    27    28    29    1
    28    29    30    1
    29    30    31    2
    30    31    33    1
    31    31    32    1
    32    36    37    1
    33    36    39    1
    34    37    46   ar
    35    37    38   ar
    36    39    40    1
    37    40    41    1
    38    41    42    1
    39    42    43    2
    40    43    45    1
    41    43    44    1
