@<TRIPOS>MOLECULE
4twr_NAD_1_ligand
   70    74     1     0     0
SMALL
NO_CHARGES


@<TRIPOS>ATOM
     1 PA          -2.1770   -11.0420   -20.6320 P.3          1 NAD400   0.0000
     2 O1A         -0.9860   -10.4520   -19.8990 O.co2        1 NAD400   0.0000
     3 O2A         -2.4950   -10.8220   -22.0830 O.co2        1 NAD400  -1.0000
     4 O5B         -3.5360   -10.2770   -19.8480 O.3          1 NAD400   0.0000
     5 C5B         -3.2410    -9.8890   -18.5300 C.3          1 NAD400   0.0000
     6 C4B         -4.0150    -8.5750   -18.2870 C.3          1 NAD400   0.0000
     7 O4B         -4.0230    -8.2110   -16.8760 O.3          1 NAD400   0.0000
     8 C3B         -3.2370    -7.5100   -19.0670 C.3          1 NAD400   0.0000
     9 O3B         -4.1920    -6.7870   -19.7880 O.3          1 NAD400   0.0000
    10 C2B         -2.5850    -6.6680   -17.9370 C.3          1 NAD400   0.0000
    11 O2B         -2.4700    -5.3250   -18.3260 O.3          1 NAD400   0.0000
    12 C1B         -3.6570    -6.8230   -16.7890 C.3          1 NAD400   0.0000
    13 N9A         -3.0610    -6.6800   -15.4310 N.pl3        1 NAD400   0.0000
    14 C8A         -1.9080    -7.3030   -14.8840 C.2          1 NAD400   0.0000
    15 N7A         -1.6770    -6.9390   -13.6210 N.2          1 NAD400   0.0000
    16 C5A         -2.7180    -6.0380   -13.3210 C.ar         1 NAD400   0.0000
    17 C6A         -3.0390    -5.2990   -12.1350 C.ar         1 NAD400   0.0000
    18 N6A         -2.2460    -5.3880   -11.0120 N.pl3        1 NAD400   0.0000
    19 N1A         -4.1060    -4.5000   -12.1240 N.ar         1 NAD400   0.0000
    20 C2A         -4.8610    -4.4220   -13.2560 C.ar         1 NAD400   0.0000
    21 N3A         -4.7000    -5.0470   -14.4570 N.ar         1 NAD400   0.0000
    22 C4A         -3.5890    -5.8690   -14.4420 C.ar         1 NAD400   0.0000
    23 O3          -2.1190   -12.5000   -20.0210 O.3          1 NAD400   0.0000
    24 PN          -3.2220   -13.5920   -20.4500 P.3          1 NAD400   0.0000
    25 O1N         -2.7370   -15.0160   -20.5140 O.co2        1 NAD400   0.0000
    26 O2N         -4.2060   -12.8630   -21.2900 O.co2        1 NAD400  -1.0000
    27 O5D         -4.2620   -13.7230   -19.1030 O.3          1 NAD400   0.0000
    28 C5D         -3.5750   -14.0320   -18.0080 C.3          1 NAD400   0.0000
    29 C4D         -4.5900   -14.6500   -17.1050 C.3          1 NAD400   0.0000
    30 O4D         -4.8820   -15.9300   -17.6970 O.3          1 NAD400   0.0000
    31 C3D         -3.9530   -14.8850   -15.7080 C.3          1 NAD400   0.0000
    32 O3D         -5.0020   -14.8540   -14.8030 O.3          1 NAD400   0.0000
    33 C2D         -3.4250   -16.2960   -15.8180 C.3          1 NAD400   0.0000
    34 O2D         -3.5990   -17.0470   -14.6450 O.3          1 NAD400   0.0000
    35 C1D         -4.4590   -16.9030   -16.8060 C.3          1 NAD400   0.0000
    36 N1N         -3.7030   -18.0210   -17.5520 N.ar         1 NAD400   1.0000
    37 C2N         -3.1830   -17.7530   -18.8120 C.ar         1 NAD400   0.0000
    38 C3N         -2.4910   -18.8120   -19.4570 C.ar         1 NAD400   0.0000
    39 C7N         -1.9150   -18.5870   -20.8140 C.2          1 NAD400   0.0000
    40 O7N         -1.4090   -19.5380   -21.4180 O.2          1 NAD400   0.0000
    41 N7N         -1.9560   -17.3180   -21.3640 N.am         1 NAD400   0.0000
    42 C4N         -2.3530   -20.0470   -18.8180 C.ar         1 NAD400   0.0000
    43 C5N         -2.8760   -20.2780   -17.5610 C.ar         1 NAD400   0.0000
    44 C6N         -3.5580   -19.2360   -16.9160 C.ar         1 NAD400   0.0000
    45 H5B1        -2.2582    -9.7375   -18.4246 H            1 NAD400   0.0000
    46 H5B2        -3.5408   -10.5926   -17.8857 H            1 NAD400   0.0000
    47 H4B         -4.9497    -8.6501   -18.6344 H            1 NAD400   0.0000
    48 H3B         -2.5502    -7.9187   -19.6680 H            1 NAD400   0.0000
    49 H5          -4.8416    -6.3680   -19.1537 H            1 NAD400   0.0000
    50 H2B         -1.7004    -7.0461   -17.6640 H            1 NAD400   0.0000
    51 H7          -3.3784    -4.9558   -18.5222 H            1 NAD400   0.0000
    52 H1B         -4.4416    -6.2174   -16.9218 H            1 NAD400   0.0000
    53 H8A         -1.3318    -7.9447   -15.3902 H            1 NAD400   0.0000
    54 H6A1        -2.4811    -4.8673   -10.1913 H            1 NAD400   0.0000
    55 H6A2        -1.4352    -5.9733   -11.0175 H            1 NAD400   0.0000
    56 H2A         -5.6530    -3.8143   -13.1967 H            1 NAD400   0.0000
    57 H5D1        -3.1820   -13.2119   -17.5920 H            1 NAD400   0.0000
    58 H5D2        -2.8445   -14.6817   -18.2186 H            1 NAD400   0.0000
    59 H4D         -5.4115   -14.0836   -17.0396 H            1 NAD400   0.0000
    60 H3D         -3.2374   -14.2204   -15.4929 H            1 NAD400   0.0000
    61 H17         -5.3709   -15.7764   -14.6886 H            1 NAD400   0.0000
    62 H2D         -2.4884   -16.3331   -16.1663 H            1 NAD400   0.0000
    63 H19         -3.2312   -17.9670   -14.7806 H            1 NAD400   0.0000
    64 H1D         -5.2383   -17.2816   -16.3067 H            1 NAD400   0.0000
    65 H2N         -3.2908   -16.8576   -19.2439 H            1 NAD400   0.0000
    66 H7N1        -1.5731   -17.1545   -22.2732 H            1 NAD400   0.0000
    67 H7N2        -2.3686   -16.5644   -20.8523 H            1 NAD400   0.0000
    68 H4N         -1.8622   -20.7835   -19.2836 H            1 NAD400   0.0000
    69 H5N         -2.7707   -21.1693   -17.1200 H            1 NAD400   0.0000
    70 H6N         -3.9367   -19.3732   -16.0007 H            1 NAD400   0.0000
@<TRIPOS>BOND
     1    1    2      ar
     2    1    3      ar
     3    1    4       1
     4    1   23       1
     5    4    5       1
     6    5    6       1
     7    6    7       1
     8    6    8       1
     9    7   12       1
    10    8    9       1
    11    8   10       1
    12   10   11       1
    13   10   12       1
    14   12   13       1
    15   13   14       1
    16   13   22       1
    17   14   15       2
    18   15   16       1
    19   16   17      ar
    20   16   22      ar
    21   17   18       1
    22   17   19      ar
    23   19   20      ar
    24   20   21      ar
    25   21   22      ar
    26   23   24       1
    27   24   25      ar
    28   24   26      ar
    29   24   27       1
    30   27   28       1
    31   28   29       1
    32   29   30       1
    33   29   31       1
    34   30   35       1
    35   31   32       1
    36   31   33       1
    37   33   34       1
    38   33   35       1
    39   35   36       1
    40   36   37      ar
    41   36   44      ar
    42   37   38      ar
    43   38   39       1
    44   38   42      ar
    45   39   40       2
    46   39   41      am
    47   42   43      ar
    48   43   44      ar
    49   44   70       1
    50    5   45       1
    51    5   46       1
    52    6   47       1
    53    8   48       1
    54    9   49       1
    55   10   50       1
    56   11   51       1
    57   12   52       1
    58   14   53       1
    59   18   54       1
    60   18   55       1
    61   20   56       1
    62   43   69       1
    63   28   57       1
    64   28   58       1
    65   29   59       1
    66   31   60       1
    67   32   61       1
    68   33   62       1
    69   34   63       1
    70   35   64       1
    71   37   65       1
    72   41   66       1
    73   41   67       1
    74   42   68       1
@<TRIPOS>SUBSTRUCTURE
     1 NAD400      1 GROUP             4 A     NAD     0 **** NAD A 400
