@<TRIPOS>MOLECULE
4jv6_18F_1_ligand
   38    41     1     0     0
SMALL
NO_CHARGES


@<TRIPOS>ATOM
     1 CAR         19.4930   -16.7440    16.2510 C.ar         1 18F201   0.0000
     2 CAS         20.0370   -15.6060    16.8680 C.ar         1 18F201   0.0000
     3 CAT         20.7250   -14.6170    16.1790 C.ar         1 18F201   0.0000
     4 CAU         20.9190   -14.7670    14.7990 C.ar         1 18F201   0.0000
     5 CAV         20.3670   -15.8990    14.1730 C.ar         1 18F201   0.0000
     6 CAQ         19.6460   -16.8780    14.8750 C.ar         1 18F201   0.0000
     7 CAP         19.0330   -18.1330    14.1750 C.3          1 18F201   0.0000
     8 NAE         19.2110   -18.1020    12.6900 N.pl3        1 18F201   0.0000
     9 CAD         20.2960   -18.6220    12.0670 C.ar         1 18F201   0.0000
    10 CAI         21.4460   -19.2740    12.5480 C.ar         1 18F201   0.0000
    11 CAH         22.4440   -19.6820    11.6260 C.ar         1 18F201   0.0000
    12 CAG         22.2360   -19.4210    10.2490 C.ar         1 18F201   0.0000
    13 CAF         21.0840   -18.7530     9.7870 C.ar         1 18F201   0.0000
    14 CAC         20.1040   -18.3700    10.7100 C.ar         1 18F201   0.0000
    15 NAB         18.9040   -17.6770    10.5530 N.2          1 18F201   0.0000
    16 CAA         18.3740   -17.5190    11.7700 C.2          1 18F201   0.0000
    17 CAJ         17.1020   -16.9920    12.0360 C.ar         1 18F201   0.0000
    18 CAK         16.0340   -17.5970    11.3610 C.ar         1 18F201   0.0000
    19 CAL         14.7040   -17.1780    11.5880 C.ar         1 18F201   0.0000
    20 CAM         14.5160   -16.1940    12.5630 C.ar         1 18F201   0.0000
    21 CAN         15.5670   -15.5970    13.2330 C.ar         1 18F201   0.0000
    22 CAO         16.8820   -16.0000    12.9860 C.ar         1 18F201   0.0000
    23 HAR         19.0098   -17.4377    16.7851 H            1 18F201   0.0000
    24 HAS         19.9227   -15.5027    17.8561 H            1 18F201   0.0000
    25 HAT         21.0758   -13.8124    16.6582 H            1 18F201   0.0000
    26 HAU         21.4347   -14.0891    14.2750 H            1 18F201   0.0000
    27 HAV         20.4933   -16.0112    13.1874 H            1 18F201   0.0000
    28 HAP1        18.0550   -18.1696    14.3805 H            1 18F201   0.0000
    29 HAP2        19.4801   -18.9519    14.5349 H            1 18F201   0.0000
    30 HAI         21.5584   -19.4475    13.5264 H            1 18F201   0.0000
    31 HAH         23.2741   -20.1426    11.9403 H            1 18F201   0.0000
    32 HAG         22.9245   -19.7185     9.5876 H            1 18F201   0.0000
    33 HAF         20.9685   -18.5555     8.8135 H            1 18F201   0.0000
    34 HAK         16.2152   -18.3345    10.7105 H            1 18F201   0.0000
    35 HAL         13.9364   -17.5655    11.0774 H            1 18F201   0.0000
    36 HAM         13.5830   -15.9105    12.7847 H            1 18F201   0.0000
    37 HAN         15.3855   -14.8727    13.8982 H            1 18F201   0.0000
    38 HAO         17.6462   -15.5854    13.4801 H            1 18F201   0.0000
@<TRIPOS>BOND
     1    1    2      ar
     2    1    6      ar
     3    2    3      ar
     4    3    4      ar
     5    4    5      ar
     6    5    6      ar
     7    6    7       1
     8    7    8       1
     9    8    9       1
    10    8   16       1
    11    9   10      ar
    12    9   14      ar
    13   10   11      ar
    14   11   12      ar
    15   12   13      ar
    16   13   14      ar
    17   14   15       1
    18   15   16       2
    19   16   17       1
    20   17   18      ar
    21   17   22      ar
    22   18   19      ar
    23   19   20      ar
    24   20   21      ar
    25   21   22      ar
    26    1   23       1
    27    2   24       1
    28    3   25       1
    29    4   26       1
    30    5   27       1
    31    7   28       1
    32    7   29       1
    33   10   30       1
    34   11   31       1
    35   12   32       1
    36   13   33       1
    37   18   34       1
    38   19   35       1
    39   20   36       1
    40   21   37       1
    41   22   38       1
@<TRIPOS>SUBSTRUCTURE
     1 18F201      1 GROUP             4 B     18F     0 **** 18F B 201
