@<TRIPOS>MOLECULE
./coach420/1ch8/ligand.pdb
 60 57 0 0 0
SMALL
GASTEIGER

@<TRIPOS>ATOM
      1 MG         -5.8850   50.5030   45.3850 Mg    434  MG434       0.0000
      2  N9         3.3950   48.1780   44.0340 N.ar  432  GPX432      0.0000
      3  C8         2.7360   46.9970   44.1830 C.ar  432  GPX432      0.0000
      4  N7         3.4310   46.0090   44.6700 N.ar  432  GPX432      0.0000
      5  C5         4.6920   46.5860   44.8750 C.ar  432  GPX432      0.0000
      6  C6         5.8440   46.0260   45.3740 C.ar  432  GPX432      0.0000
      7  O6         6.0370   44.8670   45.7490 O.2   432  GPX432      0.0000
      8  N1         6.8910   46.9250   45.4190 N.ar  432  GPX432      0.0000
      9  C2         6.7790   48.2310   45.0130 C.ar  432  GPX432      0.0000
     10  N2         7.8560   49.0080   45.0860 N.pl3 432  GPX432      0.0000
     11  N3         5.6780   48.7650   44.5450 N.ar  432  GPX432      0.0000
     12  C4         4.6790   47.8950   44.4950 C.ar  432  GPX432      0.0000
     13  O11        2.5150   52.1960   40.1150 O.3   432  GPX432      0.0000
     14  O21        3.9440   52.3320   42.0570 O.3   432  GPX432      0.0000
     15  O3'        1.4720   51.8250   42.4470 O.3   432  GPX432      0.0000
     16  PA        -2.5070   49.6610   44.9930 P.3   432  GPX432      0.0000
     17  O1A       -3.6510   50.5980   44.9040 O.2   432  GPX432     -0.5000
     18  O2A       -1.4830   50.2210   45.8970 O.3   432  GPX432     -0.5000
     19  O3A       -2.9090   48.1890   45.5270 O.3   432  GPX432      0.0000
     20  O5'       -1.7740   49.3180   43.5920 O.3   432  GPX432      0.0000
     21  PB        -4.3100   47.4390   45.3140 P.3   432  GPX432      0.0000
     22  O1B       -4.4220   46.6130   44.0790 O.2   432  GPX432     -0.5000
     23  O2B       -5.3640   48.4750   45.3160 O.3   432  GPX432      0.0000
     24  O3B       -4.4690   46.5570   46.4900 O.3   432  GPX432     -0.5000
     25  C5'       -0.3920   48.8960   43.9080 C.3   432  GPX432      0.0000
     26  C4'        0.6590   50.0600   43.9940 C.3   432  GPX432      0.0000
     27  O4'        1.8580   49.6630   44.6220 O.3   432  GPX432      0.0000
     28  C1'        2.8840   49.4110   43.6810 C.3   432  GPX432      0.0000
     29  C2'        2.1790   49.4850   42.3410 C.3   432  GPX432      0.0000
     30  O2'        3.0060   50.0750   41.3250 O.3   432  GPX432      0.0000
     31  C3'        1.0570   50.4820   42.6240 C.3   432  GPX432      0.0000
     32  C         -7.3740   52.9500   45.7760 C.3   437  HDA437      0.0000
     33  O         -6.4600   52.5920   45.0850 O.3   437  HDA437      0.0000
     34  OB        -6.1590   53.9810   47.5750 O.3   437  HDA437      0.0000
     35  CB        -8.4490   54.6920   47.1870 C.3   437  HDA437      0.0000
     36  CG        -8.4830   56.1970   46.9560 C.2   437  HDA437      0.0000
     37  OD1       -9.2400   56.8890   47.6560 O.co2 437  HDA437      0.0000
     38  OD2       -7.7610   56.7130   46.0770 O.co2 437  HDA437      0.0000
     39  O1P      -17.8210   54.5320   50.5790 O.3   440  IMP440      0.0000
     40  O2P      -16.2660   52.8650   49.7030 O.3   440  IMP440      0.0000
     41  O3P      -16.1410   55.3150   48.8420 O.3   440  IMP440      0.0000
     42  O5'      -15.2730   54.7010   51.1000 O.3   440  IMP440      0.0000
     43  C5'      -15.2770   54.4960   52.5190 C.3   440  IMP440      0.0000
     44  C4'      -13.8910   54.4610   53.0400 C.3   440  IMP440      0.0000
     45  O4'      -13.1010   53.3900   52.5190 O.3   440  IMP440      0.0000
     46  C3'      -13.0570   55.6570   52.8380 C.3   440  IMP440      0.0000
     47  O3'      -12.0810   55.7340   53.9360 O.3   440  IMP440      0.0000
     48  C2'      -12.2130   55.2510   51.6360 C.3   440  IMP440      0.0000
     49  O2'      -11.1200   56.0970   51.5710 O.3   440  IMP440      0.0000
     50  C1'      -11.8120   53.8340   51.9560 C.3   440  IMP440      0.0000
     51  N9       -11.6320   53.1110   50.7760 N.ar  440  IMP440      0.0000
     52  C8       -12.6250   52.7830   49.8900 C.ar  440  IMP440      0.0000
     53  N7       -12.3290   52.1440   48.8400 N.ar  440  IMP440      0.0000
     54  C5       -10.9790   51.9970   48.9940 C.ar  440  IMP440      0.0000
     55  C6       -10.1030   51.3400   48.1010 C.ar  440  IMP440      0.0000
     56  O6       -10.4330   50.6950   47.1070 O.2   440  IMP440      0.0000
     57  N1        -8.8100   51.4050   48.5890 N.ar  440  IMP440      0.0000
     58  C2        -8.4590   52.0050   49.7890 C.ar  440  IMP440      0.0000
     59  N3        -9.2940   52.6130   50.6290 N.ar  440  IMP440      0.0000
     60  C4       -10.5280   52.5750   50.1670 C.ar  440  IMP440      0.0000
@<TRIPOS>BOND
     1     1    23    1
     2     2    28    1
     3     2     3   ar
     4     2    12   ar
     5     3     4   ar
     6     4     5   ar
     7     5    12   ar
     8     5     6   ar
     9     6     8   ar
    10     6     7    2
    11     8     9   ar
    12     9    11   ar
    13     9    10    1
    14    11    12   ar
    15    15    31    1
    16    16    20    1
    17    16    17    2
    18    16    19    1
    19    16    18    1
    20    19    21    1
    21    20    25    1
    22    21    22    2
    23    21    23    1
    24    21    24    1
    25    25    26    1
    26    26    31    1
    27    26    27    1
    28    27    28    1
    29    28    29    1
    30    29    30    1
    31    29    31    1
    32    32    33    1
    33    35    36    1
    34    36    38   ar
    35    36    37   ar
    36    42    43    1
    37    43    44    1
    38    44    45    1
    39    44    46    1
    40    45    50    1
    41    46    48    1
    42    46    47    1
    43    48    49    1
    44    48    50    1
    45    50    51    1
    46    51    52   ar
    47    51    60   ar
    48    52    53   ar
    49    53    54   ar
    50    54    55   ar
    51    54    60   ar
    52    55    56    2
    53    55    57   ar
    54    57    58   ar
    55    58    59   ar
    56    59    60   ar
    57    33     1    1
