@<TRIPOS>MOLECULE
2xj9_AGS_1_ligand
   43    45     1     0     0
SMALL
NO_CHARGES


@<TRIPOS>ATOM
     1 PG          21.6470    -1.6000    22.3390 P.3          1 AGS1272   0.0000
     2 S1G         22.8230    -2.5480    22.1040 S.2          1 AGS1272   0.0000
     3 O2G         20.6480    -2.0500    23.3830 O.co2        1 AGS1272  -1.0000
     4 O3G         20.9270    -1.1060    21.1030 O.co2        1 AGS1272  -1.0000
     5 PB          22.1610     1.2260    22.3000 P.3          1 AGS1272   0.0000
     6 O1B         23.5020     1.4770    21.6460 O.co2        1 AGS1272   0.0000
     7 O2B         20.8330     1.3190    21.5920 O.co2        1 AGS1272  -1.0000
     8 O3B         22.2910    -0.2470    22.9580 O.3          1 AGS1272   0.0000
     9 PA          20.9680     3.1600    24.0150 P.3          1 AGS1272   0.0000
    10 O1A         20.7940     4.2640    22.9930 O.co2        1 AGS1272   0.0000
    11 O2A         19.7890     2.3580    24.4290 O.co2        1 AGS1272  -1.0000
    12 O3A         22.1400     2.1800    23.5800 O.3          1 AGS1272   0.0000
    13 O5'         21.6670     3.7640    25.3220 O.3          1 AGS1272   0.0000
    14 C5'         21.9660     2.9100    26.4130 C.3          1 AGS1272   0.0000
    15 C4'         21.2970     3.4310    27.6950 C.3          1 AGS1272   0.0000
    16 O4'         21.8720     4.6890    27.9310 O.3          1 AGS1272   0.0000
    17 C3'         19.8080     3.7120    27.5950 C.3          1 AGS1272   0.0000
    18 O3'         19.2210     3.5050    28.8680 O.3          1 AGS1272   0.0000
    19 C2'         19.6540     5.1860    27.2910 C.3          1 AGS1272   0.0000
    20 O2'         18.4180     5.6440    27.8580 O.3          1 AGS1272   0.0000
    21 C1'         20.8980     5.7310    27.9610 C.3          1 AGS1272   0.0000
    22 N9          21.6680     6.8370    27.3470 N.pl3        1 AGS1272   0.0000
    23 C8          22.3930     6.7720    26.2060 C.2          1 AGS1272   0.0000
    24 N7          23.0290     7.9520    25.9570 N.2          1 AGS1272   0.0000
    25 C5          22.7180     8.7700    26.9790 C.ar         1 AGS1272   0.0000
    26 C6          23.0490    10.1380    27.3470 C.ar         1 AGS1272   0.0000
    27 N6          23.8510    10.8680    26.5470 N.pl3        1 AGS1272   0.0000
    28 N1          22.5270    10.6110    28.4980 N.ar         1 AGS1272   0.0000
    29 C2          21.7200     9.8960    29.2980 C.ar         1 AGS1272   0.0000
    30 N3          21.3710     8.6410    29.0270 N.ar         1 AGS1272   0.0000
    31 C4          21.8380     8.0400    27.9030 C.ar         1 AGS1272   0.0000
    32 H5'1        22.9566     2.8794    26.5465 H            1 AGS1272   0.0000
    33 H5'2        21.6278     1.9901    26.2145 H            1 AGS1272   0.0000
    34 H4'         21.4838     2.8144    28.4598 H            1 AGS1272   0.0000
    35 H3'         19.3740     3.1456    26.8944 H            1 AGS1272   0.0000
    36 H5          18.9271     2.5526    28.9486 H            1 AGS1272   0.0000
    37 H2'         19.6777     5.3517    26.3051 H            1 AGS1272   0.0000
    38 H7          18.3032     6.6183    27.6643 H            1 AGS1272   0.0000
    39 H1'         20.6884     5.9611    28.9113 H            1 AGS1272   0.0000
    40 H9          22.4543     5.9631    25.6212 H            1 AGS1272   0.0000
    41 H10         24.0820    11.8089    26.7948 H            1 AGS1272   0.0000
    42 H11         24.2152    10.4688    25.7055 H            1 AGS1272   0.0000
    43 H12         21.3673    10.3235    30.1304 H            1 AGS1272   0.0000
@<TRIPOS>BOND
     1    1    2       2
     2    1    3      ar
     3    1    4      ar
     4    1    8       1
     5    5    6      ar
     6    5    7      ar
     7    5    8       1
     8    5   12       1
     9    9   10      ar
    10    9   11      ar
    11    9   12       1
    12    9   13       1
    13   13   14       1
    14   14   15       1
    15   15   16       1
    16   15   17       1
    17   16   21       1
    18   17   18       1
    19   17   19       1
    20   19   20       1
    21   19   21       1
    22   21   22       1
    23   22   23       1
    24   22   31       1
    25   23   24       2
    26   24   25       1
    27   25   26      ar
    28   25   31      ar
    29   26   27       1
    30   26   28      ar
    31   28   29      ar
    32   29   30      ar
    33   30   31      ar
    34   29   43       1
    35   27   42       1
    36   27   41       1
    37   23   40       1
    38   14   32       1
    39   14   33       1
    40   15   34       1
    41   17   35       1
    42   18   36       1
    43   19   37       1
    44   20   38       1
    45   21   39       1
@<TRIPOS>SUBSTRUCTURE
     1 AGS1272     1 GROUP             4 A     AGS     0 **** AGS A1272
