@<TRIPOS>MOLECULE
2bp1_NDP_1_ligand
   73    77     1     0     0
SMALL
NO_CHARGES


@<TRIPOS>ATOM
     1 PA         -10.7200    30.6970    -1.4760 P.3          1 NDP1361   0.0000
     2 O1A        -10.0180    29.3960    -1.4620 O.co2        1 NDP1361   0.0000
     3 O2A        -10.5400    31.4680    -2.7340 O.co2        1 NDP1361  -1.0000
     4 O5B        -10.1550    31.6040    -0.2810 O.3          1 NDP1361   0.0000
     5 C5B        -10.5590    32.9750    -0.3850 C.3          1 NDP1361   0.0000
     6 C4B         -9.6750    33.8450     0.4600 C.3          1 NDP1361   0.0000
     7 O4B         -8.4020    33.9320    -0.1780 O.3          1 NDP1361   0.0000
     8 C3B        -10.2160    35.2590     0.6330 C.3          1 NDP1361   0.0000
     9 O3B        -10.9770    35.4470     1.7990 O.3          1 NDP1361   0.0000
    10 C2B         -8.9120    36.0050     0.7570 C.3          1 NDP1361   0.0000
    11 O2B         -8.4920    35.7360     2.0670 O.3          1 NDP1361   0.0000
    12 C1B         -7.9790    35.2810    -0.2040 C.3          1 NDP1361   0.0000
    13 N9A         -8.0880    35.7790    -1.5900 N.pl3        1 NDP1361   0.0000
    14 C8A         -9.0750    35.5240    -2.5100 C.2          1 NDP1361   0.0000
    15 N7A         -8.7920    36.1590    -3.6640 N.2          1 NDP1361   0.0000
    16 C5A         -7.6420    36.8240    -3.4930 C.ar         1 NDP1361   0.0000
    17 C6A         -6.9190    37.6280    -4.3450 C.ar         1 NDP1361   0.0000
    18 N6A         -7.3400    37.8760    -5.5810 N.pl3        1 NDP1361   0.0000
    19 N1A         -5.7640    38.1920    -3.8780 N.ar         1 NDP1361   0.0000
    20 C2A         -5.3370    37.9350    -2.5950 C.ar         1 NDP1361   0.0000
    21 N3A         -6.0520    37.1480    -1.7310 N.ar         1 NDP1361   0.0000
    22 C4A         -7.1900    36.6010    -2.1960 C.ar         1 NDP1361   0.0000
    23 O3         -12.3110    30.5510    -1.2630 O.3          1 NDP1361   0.0000
    24 PN         -13.1150    30.2680     0.1150 P.3          1 NDP1361   0.0000
    25 O1N        -13.5670    31.6060     0.6440 O.co2        1 NDP1361   0.0000
    26 O2N        -12.4180    29.2980     0.9400 O.co2        1 NDP1361  -1.0000
    27 O5D        -14.3840    29.5210    -0.5100 O.3          1 NDP1361   0.0000
    28 C5D        -15.3380    30.2080    -1.2800 C.3          1 NDP1361   0.0000
    29 C4D        -16.7540    30.1320    -0.6940 C.3          1 NDP1361   0.0000
    30 O4D        -17.1540    28.7810    -0.5260 O.3          1 NDP1361   0.0000
    31 C3D        -16.9630    30.7750     0.6670 C.3          1 NDP1361   0.0000
    32 O3D        -17.1680    32.1730     0.6360 O.3          1 NDP1361   0.0000
    33 C2D        -18.1720    30.0150     1.1890 C.3          1 NDP1361   0.0000
    34 O2D        -19.3670    30.5760     0.6820 O.3          1 NDP1361   0.0000
    35 C1D        -17.9870    28.6190     0.6130 C.3          1 NDP1361   0.0000
    36 N1N        -17.3890    27.6510     1.5810 N.ar         1 NDP1361   1.0000
    37 C2N        -18.0890    26.5360     1.9710 C.ar         1 NDP1361   0.0000
    38 C3N        -17.4690    25.5310     2.6780 C.ar         1 NDP1361   0.0000
    39 C7N        -18.2340    24.3600     3.1740 C.2          1 NDP1361   0.0000
    40 O7N        -17.6840    23.6760     4.2700 O.2          1 NDP1361   0.0000
    41 N7N        -19.3440    23.9970     2.5460 N.am         1 NDP1361   0.0000
    42 C4N        -16.1930    25.7690     3.4070 C.ar         1 NDP1361   0.0000
    43 C5N        -15.5430    27.0220     2.9540 C.ar         1 NDP1361   0.0000
    44 C6N        -16.1560    27.8900     2.0810 C.ar         1 NDP1361   0.0000
    45 P2B         -7.7680    36.7370     3.0690 P.3          1 NDP1361   0.0000
    46 O1X         -7.7200    38.0900     2.3650 O.co2        1 NDP1361   0.0000
    47 O2X         -8.5510    36.6290     4.3340 O.co2        1 NDP1361  -1.0000
    48 O3X         -6.3450    36.3530     3.3990 O.co2        1 NDP1361  -1.0000
    49 H5B1       -11.5049    33.0646    -0.0732 H            1 NDP1361   0.0000
    50 H5B2       -10.4935    33.2666    -1.3393 H            1 NDP1361   0.0000
    51 H4B         -9.5632    33.4237     1.3600 H            1 NDP1361   0.0000
    52 H3B        -10.7223    35.5521    -0.1780 H            1 NDP1361   0.0000
    53 H5         -11.9381    35.2505     1.6050 H            1 NDP1361   0.0000
    54 H2B         -8.9969    36.9823     0.5630 H            1 NDP1361   0.0000
    55 H1B         -7.0337    35.3519     0.1143 H            1 NDP1361   0.0000
    56 H8A         -9.8806    34.9541    -2.3482 H            1 NDP1361   0.0000
    57 H6A1        -6.8004    38.4628    -6.1847 H            1 NDP1361   0.0000
    58 H6A2        -8.1964    37.4758    -5.9072 H            1 NDP1361   0.0000
    59 H2A         -4.4758    38.3362    -2.2829 H            1 NDP1361   0.0000
    60 H5D1       -15.3518    29.8109    -2.1977 H            1 NDP1361   0.0000
    61 H5D2       -15.0684    31.1693    -1.3368 H            1 NDP1361   0.0000
    62 H4D        -17.3819    30.5638    -1.3415 H            1 NDP1361   0.0000
    63 H3D        -16.1745    30.5733     1.2481 H            1 NDP1361   0.0000
    64 H16        -16.2869    32.6407     0.7062 H            1 NDP1361   0.0000
    65 H2D        -18.1799    29.9939     2.1887 H            1 NDP1361   0.0000
    66 H18        -20.0620    29.8617     0.6000 H            1 NDP1361   0.0000
    67 H1D        -18.8764    28.2714     0.3161 H            1 NDP1361   0.0000
    68 H2N        -19.0583    26.4534     1.7392 H            1 NDP1361   0.0000
    69 H7N1       -19.8677    23.2096     2.8711 H            1 NDP1361   0.0000
    70 H7N2       -19.6574    24.5106     1.7473 H            1 NDP1361   0.0000
    71 H4N        -15.8226    25.1626     4.1106 H            1 NDP1361   0.0000
    72 H5N        -14.6291    27.2433     3.2943 H            1 NDP1361   0.0000
    73 H6N        -15.6751    28.7231     1.8078 H            1 NDP1361   0.0000
@<TRIPOS>BOND
     1    1    2      ar
     2    1    3      ar
     3    1    4       1
     4    1   23       1
     5    4    5       1
     6    5    6       1
     7    6    7       1
     8    6    8       1
     9    7   12       1
    10    8    9       1
    11    8   10       1
    12   10   11       1
    13   10   12       1
    14   11   45       1
    15   12   13       1
    16   13   14       1
    17   13   22       1
    18   14   15       2
    19   15   16       1
    20   16   17      ar
    21   16   22      ar
    22   17   18       1
    23   17   19      ar
    24   19   20      ar
    25   20   21      ar
    26   21   22      ar
    27   23   24       1
    28   24   25      ar
    29   24   26      ar
    30   24   27       1
    31   27   28       1
    32   28   29       1
    33   29   30       1
    34   29   31       1
    35   30   35       1
    36   31   32       1
    37   31   33       1
    38   33   34       1
    39   33   35       1
    40   35   36       1
    41   36   37      ar
    42   36   44      ar
    43   37   38      ar
    44   38   39       1
    45   38   42      ar
    46   39   40       2
    47   39   41      am
    48   42   43      ar
    49   43   44      ar
    50   45   46      ar
    51   45   47      ar
    52   45   48      ar
    53   43   72       1
    54    5   49       1
    55    5   50       1
    56    6   51       1
    57    8   52       1
    58    9   53       1
    59   10   54       1
    60   12   55       1
    61   14   56       1
    62   18   57       1
    63   18   58       1
    64   20   59       1
    65   44   73       1
    66   28   60       1
    67   28   61       1
    68   29   62       1
    69   31   63       1
    70   32   64       1
    71   33   65       1
    72   34   66       1
    73   35   67       1
    74   37   68       1
    75   41   69       1
    76   41   70       1
    77   42   71       1
@<TRIPOS>SUBSTRUCTURE
     1 NDP1361     1 GROUP             4 A     NDP     0 **** NDP A1361
