@<TRIPOS>MOLECULE
1ksz_PGS_2_ligand
   38    40     1     0     0
SMALL
NO_CHARGES


@<TRIPOS>ATOM
     1 PA         -16.3530    54.7480    50.0300 P.3          1 PGS440   0.0000
     2 O1A        -16.3660    55.6210    48.8560 O.co2        1 PGS440   0.0000
     3 O2A        -17.6750    54.7330    50.6630 O.co2        1 PGS440  -1.0000
     4 O3A        -15.9460    53.4030    49.6540 O.co2        1 PGS440  -1.0000
     5 O5'        -15.3030    55.3080    51.0560 O.3          1 PGS440   0.0000
     6 C5'        -15.4770    55.1360    52.3490 C.3          1 PGS440   0.0000
     7 C4'        -14.2070    54.9110    52.8210 C.3          1 PGS440   0.0000
     8 O4'        -13.8300    53.8260    51.9870 O.3          1 PGS440   0.0000
     9 C3'        -13.3130    56.1320    52.7470 C.3          1 PGS440   0.0000
    10 O3'        -12.4280    56.1110    53.8700 O.3          1 PGS440   0.0000
    11 C2'        -12.4360    55.5530    51.6600 C.3          1 PGS440   0.0000
    12 O2'        -11.0610    55.9390    51.6980 O.3          1 PGS440   0.0000
    13 C1'        -12.4700    54.0390    51.8260 C.3          1 PGS440   0.0000
    14 N9         -12.1080    53.5080    50.5910 N.pl3        1 PGS440   0.0000
    15 C8         -12.9280    53.0170    49.5700 C.2          1 PGS440   0.0000
    16 N7         -12.2870    52.3350    48.6770 N.2          1 PGS440   0.0000
    17 C5         -10.9520    52.3720    49.1070 C.ar         1 PGS440   0.0000
    18 C6          -9.8220    51.7950    48.5010 C.ar         1 PGS440   0.0000
    19 S6          -9.7220    50.9880    46.8780 S.3          1 PGS440   0.0000
    20 P           -8.8300    49.3910    46.6100 P.3          1 PGS440   0.0000
    21 O1P         -9.8900    48.4050    46.2280 O.co2        1 PGS440   0.0000
    22 O2P         -8.1440    49.0130    47.8930 O.co2        1 PGS440  -1.0000
    23 O3P         -7.8410    49.5150    45.5180 O.co2        1 PGS440  -1.0000
    24 N1          -8.6730    52.0140    49.2410 N.ar         1 PGS440   1.0000
    25 C2          -8.6310    52.7590    50.3930 C.ar         1 PGS440   0.0000
    26 N3          -9.7040    53.3210    50.9570 N.ar         1 PGS440   0.0000
    27 C4         -10.8280    53.0750    50.2610 C.ar         1 PGS440   0.0000
    28 H5'1       -16.0684    54.3497    52.5278 H            1 PGS440   0.0000
    29 H5'2       -15.8734    55.9532    52.7673 H            1 PGS440   0.0000
    30 H4'        -14.2581    54.5964    53.7688 H            1 PGS440   0.0000
    31 H3'        -13.7603    57.0033    52.5452 H            1 PGS440   0.0000
    32 H5         -12.9618    56.1282    54.7154 H            1 PGS440   0.0000
    33 H2'        -12.8188    55.7931    50.7679 H            1 PGS440   0.0000
    34 H7         -10.4890    55.1252    51.8008 H            1 PGS440   0.0000
    35 H1'        -11.9158    53.7037    52.5878 H            1 PGS440   0.0000
    36 H9         -13.9144    53.1776    49.5338 H            1 PGS440   0.0000
    37 H10         -7.7443    52.8889    50.8367 H            1 PGS440   0.0000
    38 H11         -7.8207    51.6040    48.9162 H            1 PGS440   0.0000
@<TRIPOS>BOND
     1    1    2      ar
     2    1    3      ar
     3    1    4      ar
     4    1    5       1
     5    5    6       1
     6    6    7       1
     7    7    8       1
     8    7    9       1
     9    8   13       1
    10    9   10       1
    11    9   11       1
    12   11   12       1
    13   11   13       1
    14   13   14       1
    15   14   15       1
    16   14   27       1
    17   15   16       2
    18   16   17       1
    19   17   18      ar
    20   17   27      ar
    21   18   19       1
    22   18   24      ar
    23   19   20       1
    24   20   21      ar
    25   20   22      ar
    26   20   23      ar
    27   24   25      ar
    28   25   26      ar
    29   26   27      ar
    30   25   37       1
    31   15   36       1
    32    6   28       1
    33    6   29       1
    34    7   30       1
    35    9   31       1
    36   10   32       1
    37   11   33       1
    38   12   34       1
    39   13   35       1
    40   24   38       1
@<TRIPOS>SUBSTRUCTURE
     1 PGS440      1 GROUP             4 A     PGS     0 **** PGS A 440
