@<TRIPOS>MOLECULE
1d7r_5PA_1_ligand
   34    35     1     0     0
SMALL
NO_CHARGES


@<TRIPOS>ATOM
     1 C4          17.0720    52.0600    16.4430 C.2          1 5PA500   0.0000
     2 C4A         16.8030    51.4230    17.7350 C.2          1 5PA500   0.0000
     3 P           20.0440    48.5540    16.6430 P.3          1 5PA500   0.0000
     4 O1P         19.7030    48.8970    18.0690 O.co2        1 5PA500   0.0000
     5 O2P         19.5400    47.1280    16.2720 O.co2        1 5PA500  -1.0000
     6 O3P         21.4070    48.6940    16.1260 O.co2        1 5PA500  -1.0000
     7 O4P         19.2710    49.6650    15.7670 O.3          1 5PA500   0.0000
     8 C5A         19.4470    51.0150    16.1630 C.3          1 5PA500   0.0000
     9 C5          18.2790    51.8710    15.6740 C.2          1 5PA500   0.0000
    10 N1          17.5570    53.2930    13.9670 N.2          1 5PA500   0.0000
    11 C6          18.5050    52.4790    14.4770 C.2          1 5PA500   0.0000
    12 C2          16.3790    53.5420    14.6080 C.2          1 5PA500   0.0000
    13 C2A         15.4190    54.4930    13.9490 C.3          1 5PA500   0.0000
    14 C3          16.1290    52.8930    15.8640 C.2          1 5PA500   0.0000
    15 O3          14.9320    53.1470    16.4490 O.2          1 5PA500   0.0000
    16 N           16.9280    52.1250    18.8180 N.pl3        1 5PA500   0.0000
    17 C8          16.4200    51.7700    20.1920 C.3          1 5PA500   0.0000
    18 C7          15.1350    52.3280    20.7210 C.2          1 5PA500   0.0000
    19 O7          14.0250    51.6640    20.5390 O.co2        1 5PA500   0.0000
    20 O8          15.1440    53.3890    21.3480 O.co2        1 5PA500  -1.0000
    21 C9          16.8430    50.3280    20.5090 C.3          1 5PA500   0.0000
    22 C10         17.4140    51.4050    21.3120 C.3          1 5PA500   0.0000
    23 H4A         16.5276    50.4628    17.7807 H            1 5PA500   0.0000
    24 H5A1        20.2982    51.3648    15.7717 H            1 5PA500   0.0000
    25 H5A2        19.4948    51.0620    17.1608 H            1 5PA500   0.0000
    26 H4          19.3607    52.3247    13.9830 H            1 5PA500   0.0000
    27 H2A1        14.6013    54.5880    14.5168 H            1 5PA500   0.0000
    28 H2A2        15.8557    55.3861    13.8413 H            1 5PA500   0.0000
    29 H2A3        15.1614    54.1374    13.0506 H            1 5PA500   0.0000
    30 H8          17.4232    49.8292    19.8651 H            1 5PA500   0.0000
    31 H9          16.1849    49.6982    20.9215 H            1 5PA500   0.0000
    32 H10         17.1428    51.5078    22.2690 H            1 5PA500   0.0000
    33 H11         18.3812    51.6388    21.2127 H            1 5PA500   0.0000
    34 H12         17.4134    52.9951    18.7325 H            1 5PA500   0.0000
@<TRIPOS>BOND
     1    1    2       2
     2    1    9       1
     3    1   14       1
     4    2   16       1
     5    3    4      ar
     6    3    5      ar
     7    3    6      ar
     8    3    7       1
     9    7    8       1
    10    8    9       1
    11    9   11       2
    12   10   11       1
    13   10   12       2
    14   12   13       1
    15   12   14       1
    16   14   15       2
    17   16   17       1
    18   17   18       1
    19   17   21       1
    20   17   22       1
    21   18   19      ar
    22   18   20      ar
    23   21   22       1
    24    2   23       1
    25   22   33       1
    26   22   32       1
    27    8   24       1
    28    8   25       1
    29   11   26       1
    30   13   27       1
    31   13   28       1
    32   13   29       1
    33   21   31       1
    34   16   34       1
    35   21   30       1
@<TRIPOS>SUBSTRUCTURE
     1 5PA500      1 GROUP             4 A     5PA     0 **** 5PA A 500
