@<TRIPOS>MOLECULE
4egr_PEP_2_ligand
   12    11     1     0     0
SMALL
NO_CHARGES


@<TRIPOS>ATOM
     1 C1         -19.6390    -6.0720   -27.4540 C.2          1 PEP503   0.0000
     2 O1         -19.0210    -6.4490   -28.4720 O.co2        1 PEP503   0.0000
     3 O2'        -20.8060    -6.4470   -27.2100 O.co2        1 PEP503  -1.0000
     4 C2         -18.9780    -5.1650   -26.5200 C.2          1 PEP503   0.0000
     5 C3         -17.9970    -5.6060   -25.7540 C.2          1 PEP503   0.0000
     6 O2         -19.3990    -3.7760   -26.4340 O.3          1 PEP503   0.0000
     7 P          -18.5030    -2.7110   -25.6240 P.3          1 PEP503   0.0000
     8 O1P        -19.3440    -1.4570   -25.6180 O.co2        1 PEP503   0.0000
     9 O2P        -18.3210    -3.3460   -24.2670 O.co2        1 PEP503  -1.0000
    10 O3P        -17.2360    -2.6080   -26.4390 O.co2        1 PEP503  -1.0000
    11 H1         -17.5443    -4.9849   -25.1143 H            1 PEP503   0.0000
    12 H2         -17.7068    -6.5611   -25.8136 H            1 PEP503   0.0000
@<TRIPOS>BOND
     1    1    2      ar
     2    1    3      ar
     3    1    4       1
     4    4    5       2
     5    4    6       1
     6    6    7       1
     7    7    8      ar
     8    7    9      ar
     9    7   10      ar
    10    5   12       1
    11    5   11       1
@<TRIPOS>SUBSTRUCTURE
     1 PEP503      1 GROUP             4 B     PEP     0 **** PEP B 503
