@<TRIPOS>MOLECULE
3hgg_CHD_1_ligand
   68    71     1     0     0
SMALL
NO_CHARGES


@<TRIPOS>ATOM
     1 C1         -11.5580    -1.9730   -12.1250 C.3          1 CHD211   0.0000
     2 C2         -12.2380    -0.6100   -12.1210 C.3          1 CHD211   0.0000
     3 C3         -11.6220     0.2170   -10.9950 C.3          1 CHD211   0.0000
     4 O3         -12.5890     1.1230   -10.4950 O.3          1 CHD211   0.0000
     5 C4         -11.0700    -0.7000    -9.8980 C.3          1 CHD211   0.0000
     6 C5          -9.7800    -1.2190   -10.4950 C.3          1 CHD211   0.0000
     7 C6          -8.9070    -2.1600    -9.6760 C.3          1 CHD211   0.0000
     8 C7          -7.6310    -2.1550   -10.5080 C.3          1 CHD211   0.0000
     9 O7          -6.4630    -2.4700    -9.7510 O.3          1 CHD211   0.0000
    10 C8          -7.9260    -2.8410   -11.8620 C.3          1 CHD211   0.0000
    11 C9          -9.3970    -3.2110   -11.8270 C.3          1 CHD211   0.0000
    12 C10        -10.0700    -1.8610   -11.8270 C.3          1 CHD211   0.0000
    13 C11         -9.9440    -4.0340   -12.9890 C.3          1 CHD211   0.0000
    14 C12         -8.9480    -4.9510   -13.6700 C.3          1 CHD211   0.0000
    15 O12         -8.4910    -6.0460   -12.8830 O.3          1 CHD211   0.0000
    16 C13         -7.7330    -4.1320   -13.8640 C.3          1 CHD211   0.0000
    17 C14         -7.0500    -3.8800   -12.5420 C.3          1 CHD211   0.0000
    18 C15         -5.7930    -3.2950   -13.1050 C.3          1 CHD211   0.0000
    19 C16         -5.6030    -3.8420   -14.5200 C.3          1 CHD211   0.0000
    20 C17         -6.7700    -4.7460   -14.8320 C.3          1 CHD211   0.0000
    21 C18         -8.1280    -2.8060   -14.4600 C.3          1 CHD211   0.0000
    22 C19         -9.4030    -0.9520   -12.8410 C.3          1 CHD211   0.0000
    23 C20         -7.2510    -4.7760   -16.3090 C.3          1 CHD211   0.0000
    24 C21         -6.5890    -3.7660   -17.2320 C.3          1 CHD211   0.0000
    25 C22         -8.7530    -4.6390   -16.5350 C.3          1 CHD211   0.0000
    26 C23         -9.0770    -3.7100   -17.7150 C.3          1 CHD211   0.0000
    27 O25         -9.4420    -1.5580   -16.7950 O.co2        1 CHD211   0.0000
    28 C24         -9.9870    -2.5490   -17.3220 C.2          1 CHD211   0.0000
    29 O26        -11.2370    -2.6200   -17.5030 O.co2        1 CHD211  -1.0000
    30 H1         -11.6775    -2.3921   -13.0251 H            1 CHD211   0.0000
    31 H2         -11.9852    -2.5503   -11.4291 H            1 CHD211   0.0000
    32 H3         -13.2195    -0.7202   -11.9642 H            1 CHD211   0.0000
    33 H4         -12.0898    -0.1536   -12.9983 H            1 CHD211   0.0000
    34 H5         -10.8624     0.7460   -11.3735 H            1 CHD211   0.0000
    35 H6         -13.0969     0.6908    -9.7499 H            1 CHD211   0.0000
    36 H7         -11.7030    -1.4499    -9.7058 H            1 CHD211   0.0000
    37 H8         -10.8950    -0.1877    -9.0572 H            1 CHD211   0.0000
    38 H9          -9.2184    -0.4146   -10.6889 H            1 CHD211   0.0000
    39 H10         -9.3054    -3.0753    -9.6176 H            1 CHD211   0.0000
    40 H11         -8.7475    -1.8064    -8.7543 H            1 CHD211   0.0000
    41 H12         -7.5069    -1.1926   -10.7496 H            1 CHD211   0.0000
    42 H13         -5.6624    -2.4507   -10.3499 H            1 CHD211   0.0000
    43 H14         -7.9049    -2.0770   -12.5068 H            1 CHD211   0.0000
    44 H15         -9.5987    -3.6799   -10.9671 H            1 CHD211   0.0000
    45 H16        -10.2969    -3.3990   -13.6762 H            1 CHD211   0.0000
    46 H17        -10.6927    -4.5980   -12.6406 H            1 CHD211   0.0000
    47 H18         -9.3038    -5.2703   -14.5483 H            1 CHD211   0.0000
    48 H19         -8.2691    -6.8164   -13.4807 H            1 CHD211   0.0000
    49 H20         -6.9040    -4.7059   -11.9974 H            1 CHD211   0.0000
    50 H21         -5.0138    -3.5544   -12.5344 H            1 CHD211   0.0000
    51 H22         -5.8673    -2.2982   -13.1346 H            1 CHD211   0.0000
    52 H23         -4.7493    -4.3602   -14.5716 H            1 CHD211   0.0000
    53 H24         -5.5745    -3.0866   -15.1747 H            1 CHD211   0.0000
    54 H25         -6.5541    -5.6767   -14.5367 H            1 CHD211   0.0000
    55 H26         -7.3115    -2.2447   -14.5949 H            1 CHD211   0.0000
    56 H27         -8.5779    -2.9570   -15.3402 H            1 CHD211   0.0000
    57 H28         -8.7569    -2.3362   -13.8405 H            1 CHD211   0.0000
    58 H29         -8.4264    -0.8849   -12.6369 H            1 CHD211   0.0000
    59 H30         -9.5265    -1.3292   -13.7589 H            1 CHD211   0.0000
    60 H31         -9.8162    -0.0425   -12.7960 H            1 CHD211   0.0000
    61 H32         -7.0004    -5.6774   -16.6620 H            1 CHD211   0.0000
    62 H33         -6.9624    -3.8627   -18.1546 H            1 CHD211   0.0000
    63 H34         -6.7663    -2.8410   -16.8959 H            1 CHD211   0.0000
    64 H35         -5.6027    -3.9298   -17.2527 H            1 CHD211   0.0000
    65 H36         -9.1711    -4.2661   -15.7067 H            1 CHD211   0.0000
    66 H37         -9.1348    -5.5440   -16.7227 H            1 CHD211   0.0000
    67 H38         -9.5313    -4.2450   -18.4273 H            1 CHD211   0.0000
    68 H39         -8.2207    -3.3377   -18.0729 H            1 CHD211   0.0000
@<TRIPOS>BOND
     1    1    2       1
     2    1   12       1
     3    2    3       1
     4    3    4       1
     5    3    5       1
     6    5    6       1
     7    6    7       1
     8    6   12       1
     9    7    8       1
    10    8    9       1
    11    8   10       1
    12   10   11       1
    13   10   17       1
    14   11   12       1
    15   11   13       1
    16   12   22       1
    17   13   14       1
    18   14   15       1
    19   14   16       1
    20   16   17       1
    21   16   20       1
    22   16   21       1
    23   17   18       1
    24   18   19       1
    25   19   20       1
    26   20   23       1
    27   23   24       1
    28   23   25       1
    29   25   26       1
    30   26   28       1
    31   27   28      ar
    32   28   29      ar
    33    1   30       1
    34    1   31       1
    35    2   32       1
    36    2   33       1
    37    3   34       1
    38    4   35       1
    39    5   36       1
    40    5   37       1
    41    6   38       1
    42    7   39       1
    43    7   40       1
    44    8   41       1
    45    9   42       1
    46   10   43       1
    47   11   44       1
    48   13   45       1
    49   13   46       1
    50   14   47       1
    51   15   48       1
    52   17   49       1
    53   18   50       1
    54   18   51       1
    55   19   52       1
    56   19   53       1
    57   20   54       1
    58   21   55       1
    59   21   56       1
    60   21   57       1
    61   22   58       1
    62   22   59       1
    63   22   60       1
    64   23   61       1
    65   24   62       1
    66   24   63       1
    67   24   64       1
    68   25   65       1
    69   25   66       1
    70   26   67       1
    71   26   68       1
@<TRIPOS>SUBSTRUCTURE
     1 CHD211      1 GROUP             4 A     CHD     0 **** CHD A 211
