@<TRIPOS>MOLECULE
3nt6_COA_2_ligand
   80    82     1     0     0
SMALL
NO_CHARGES


@<TRIPOS>ATOM
     1 N1A         38.0200   -22.6200    43.8110 N.ar         1 COA901   0.0000
     2 C2A         39.3560   -22.7390    44.0650 C.ar         1 COA901   0.0000
     3 N3A         40.1930   -22.3440    43.0750 N.ar         1 COA901   0.0000
     4 C4A         39.6980   -21.8760    41.9040 C.ar         1 COA901   0.0000
     5 C5A         38.3330   -21.8350    41.6610 C.ar         1 COA901   0.0000
     6 C6A         37.4480   -22.2220    42.6780 C.ar         1 COA901   0.0000
     7 N6A         36.1230   -21.9930    42.6520 N.pl3        1 COA901   0.0000
     8 N7A         38.1420   -21.3400    40.4220 N.2          1 COA901   0.0000
     9 C8A         39.3220   -21.0460    39.8670 C.2          1 COA901   0.0000
    10 N9A         40.3250   -21.3690    40.7980 N.pl3        1 COA901   0.0000
    11 C1B         41.7460   -21.0800    40.6490 C.3          1 COA901   0.0000
    12 C2B         42.2730   -21.7980    39.4100 C.3          1 COA901   0.0000
    13 O2B         42.7080   -23.0860    39.7360 O.3          1 COA901   0.0000
    14 C3B         43.4470   -20.8940    38.9890 C.3          1 COA901   0.0000
    15 O3B         44.5940   -20.9850    39.7960 O.3          1 COA901   0.0000
    16 P3B         45.8830   -21.8620    39.2970 P.3          1 COA901   0.0000
    17 O7A         46.8290   -21.5900    40.3710 O.co2        1 COA901   0.0000
    18 O8A         46.2660   -21.3030    37.9400 O.co2        1 COA901  -1.0000
    19 O9A         45.4240   -23.3010    39.1850 O.co2        1 COA901  -1.0000
    20 C4B         42.8820   -19.5560    39.2720 C.3          1 COA901   0.0000
    21 O4B         41.8640   -19.7120    40.2500 O.3          1 COA901   0.0000
    22 C5B         42.4030   -18.8650    38.0040 C.3          1 COA901   0.0000
    23 O5B         41.6330   -17.7300    38.4150 O.3          1 COA901   0.0000
    24 P1A         41.3770   -16.6230    37.2500 P.3          1 COA901   0.0000
    25 O1A         40.8670   -17.1610    35.9480 O.co2        1 COA901   0.0000
    26 O2A         40.6360   -15.5090    37.9670 O.co2        1 COA901  -1.0000
    27 O3A         42.8100   -16.1840    36.7170 O.3          1 COA901   0.0000
    28 P2A         44.0840   -15.5950    37.4210 P.3          1 COA901   0.0000
    29 O4A         45.2120   -16.3920    36.9500 O.co2        1 COA901   0.0000
    30 O5A         44.0080   -15.4160    38.9130 O.co2        1 COA901  -1.0000
    31 O6A         44.1110   -14.0460    36.8910 O.3          1 COA901   0.0000
    32 CBP         43.7270   -12.6890    34.8520 C.3          1 COA901   0.0000
    33 CCP         44.4620   -13.8190    35.5530 C.3          1 COA901   0.0000
    34 CDP         44.2650   -11.4680    35.5500 C.3          1 COA901   0.0000
    35 CEP         42.2060   -12.6560    35.0870 C.3          1 COA901   0.0000
    36 CAP         44.0680   -12.8230    33.3190 C.3          1 COA901   0.0000
    37 OAP         44.1370   -14.1130    32.6900 O.3          1 COA901   0.0000
    38 C9P         43.6430   -11.7310    32.3590 C.2          1 COA901   0.0000
    39 O9P         44.2300   -10.4940    32.5190 O.2          1 COA901   0.0000
    40 N8P         42.7720   -11.9480    31.3700 N.am         1 COA901   0.0000
    41 C7P         41.8320   -10.9250    30.8840 C.3          1 COA901   0.0000
    42 C6P         42.3810   -10.3470    29.6060 C.3          1 COA901   0.0000
    43 C5P         42.3710   -11.3440    28.4500 C.2          1 COA901   0.0000
    44 O5P         42.4750   -12.5950    28.6110 O.2          1 COA901   0.0000
    45 N4P         42.2160   -10.8070    27.2300 N.am         1 COA901   0.0000
    46 C3P         42.0730   -11.7030    26.0790 C.3          1 COA901   0.0000
    47 C2P         40.8360   -11.5180    25.1630 C.3          1 COA901   0.0000
    48 S1P         39.2410   -11.2690    25.9800 S.3          1 COA901   0.0000
    49 H2A         39.6981   -23.0978    44.9335 H            1 COA901   0.0000
    50 H6A1        35.6839   -21.6935    41.8050 H            1 COA901   0.0000
    51 H6A2        35.5769   -22.1222    43.4797 H            1 COA901   0.0000
    52 H8A         39.4656   -20.6648    38.9537 H            1 COA901   0.0000
    53 H1B         42.2728   -21.2905    41.4725 H            1 COA901   0.0000
    54 H2B         41.5751   -21.8296    38.6945 H            1 COA901   0.0000
    55 H7          43.6787   -23.1763    39.5134 H            1 COA901   0.0000
    56 H3B         43.6680   -21.0037    38.0199 H            1 COA901   0.0000
    57 H4B         43.6073   -18.9952    39.6713 H            1 COA901   0.0000
    58 H5B1        41.8361   -19.4885    37.4656 H            1 COA901   0.0000
    59 H5B2        43.1859   -18.5695    37.4565 H            1 COA901   0.0000
    60 HCP1        44.2850   -14.6611    35.0435 H            1 COA901   0.0000
    61 HCP2        45.4398   -13.6115    35.5246 H            1 COA901   0.0000
    62 HDP1        43.8423   -10.6489    35.1621 H            1 COA901   0.0000
    63 HDP2        44.0538   -11.5218    36.5260 H            1 COA901   0.0000
    64 HDP3        45.2562   -11.4224    35.4254 H            1 COA901   0.0000
    65 HEP1        41.8087   -11.8843    34.5904 H            1 COA901   0.0000
    66 HEP2        41.7994   -13.5086    34.7586 H            1 COA901   0.0000
    67 HEP3        42.0219   -12.5537    36.0646 H            1 COA901   0.0000
    68 HAP         45.0462   -12.6194    33.3605 H            1 COA901   0.0000
    69 H21         44.3635   -14.0004    31.7225 H            1 COA901   0.0000
    70 H8P         42.7578   -12.8500    30.9384 H            1 COA901   0.0000
    71 H7P1        41.7357   -10.2020    31.5681 H            1 COA901   0.0000
    72 H7P2        40.9393   -11.3411    30.7108 H            1 COA901   0.0000
    73 H6P1        43.3237   -10.0549    29.7671 H            1 COA901   0.0000
    74 H6P2        41.8260    -9.5557    29.3495 H            1 COA901   0.0000
    75 H4P         42.1984    -9.8146    27.1085 H            1 COA901   0.0000
    76 H3P1        42.0448   -12.6383    26.4317 H            1 COA901   0.0000
    77 H3P2        42.8859   -11.5863    25.5084 H            1 COA901   0.0000
    78 H2P1        40.7584   -12.3351    24.5918 H            1 COA901   0.0000
    79 H2P2        41.0060   -10.7211    24.5834 H            1 COA901   0.0000
    80 H1P         39.2407   -11.7413    26.8615 H            1 COA901   0.0000
@<TRIPOS>BOND
     1    1    2      ar
     2    1    6      ar
     3    2    3      ar
     4    3    4      ar
     5    4    5      ar
     6    4   10       1
     7    5    6      ar
     8    5    8       1
     9    6    7       1
    10    8    9       2
    11    9   10       1
    12   10   11       1
    13   11   12       1
    14   11   21       1
    15   12   13       1
    16   12   14       1
    17   14   15       1
    18   14   20       1
    19   15   16       1
    20   16   17      ar
    21   16   18      ar
    22   16   19      ar
    23   20   21       1
    24   20   22       1
    25   22   23       1
    26   23   24       1
    27   24   25      ar
    28   24   26      ar
    29   24   27       1
    30   27   28       1
    31   28   29      ar
    32   28   30      ar
    33   28   31       1
    34   31   33       1
    35   32   33       1
    36   32   34       1
    37   32   35       1
    38   32   36       1
    39   36   37       1
    40   36   38       1
    41   38   39       2
    42   38   40      am
    43   40   41       1
    44   41   42       1
    45   42   43       1
    46   43   44       2
    47   43   45      am
    48   45   46       1
    49   46   47       1
    50   47   48       1
    51    2   49       1
    52    7   50       1
    53    7   51       1
    54    9   52       1
    55   11   53       1
    56   12   54       1
    57   13   55       1
    58   14   56       1
    59   48   80       1
    60   47   79       1
    61   20   57       1
    62   22   58       1
    63   22   59       1
    64   47   78       1
    65   46   77       1
    66   33   60       1
    67   33   61       1
    68   34   62       1
    69   34   63       1
    70   34   64       1
    71   35   65       1
    72   35   66       1
    73   35   67       1
    74   36   68       1
    75   37   69       1
    76   40   70       1
    77   41   71       1
    78   41   72       1
    79   42   73       1
    80   42   74       1
    81   45   75       1
    82   46   76       1
@<TRIPOS>SUBSTRUCTURE
     1 COA901      1 GROUP             4 A     COA     0 **** COA A 901
