@<TRIPOS>MOLECULE
2yqs_UD1_1_ligand
   64    66     1     0     0
SMALL
NO_CHARGES


@<TRIPOS>ATOM
     1 C1'         10.0420    -4.6370    32.7310 C.3          1 UD11001   0.0000
     2 C2'         10.4380    -5.6660    33.7990 C.3          1 UD11001   0.0000
     3 C3'         10.5220    -7.0810    33.1370 C.3          1 UD11001   0.0000
     4 C4'          9.1270    -7.4360    32.5630 C.3          1 UD11001   0.0000
     5 C5'          8.7700    -6.3560    31.5140 C.3          1 UD11001   0.0000
     6 C6'          7.3540    -6.5450    30.9710 C.3          1 UD11001   0.0000
     7 C7'         11.7930    -4.5550    35.5020 C.2          1 UD11001   0.0000
     8 C8'         13.1340    -4.1890    36.0940 C.3          1 UD11001   0.0000
     9 N2'         11.7560    -5.3140    34.3740 N.am         1 UD11001   0.0000
    10 O1'         11.0410    -4.6200    31.7360 O.3          1 UD11001   0.0000
    11 O3'         10.8790    -8.0680    34.1080 O.3          1 UD11001   0.0000
    12 O4'          9.0870    -8.7360    31.9360 O.3          1 UD11001   0.0000
    13 O5'          8.7810    -5.0420    32.1370 O.3          1 UD11001   0.0000
    14 O6'          7.1190    -5.5000    30.0200 O.3          1 UD11001   0.0000
    15 O7'         10.7660    -4.1590    36.0510 O.2          1 UD11001   0.0000
    16 N1          10.6730     2.6940    35.9550 N.pl3        1 UD11001   0.0000
    17 C2          10.7390     3.7040    36.9540 C.2          1 UD11001   0.0000
    18 N3          12.0160     4.1400    37.2070 N.pl3        1 UD11001   0.0000
    19 C4          13.2090     3.6850    36.5840 C.2          1 UD11001   0.0000
    20 C5          13.0340     2.6490    35.5810 C.2          1 UD11001   0.0000
    21 C6          11.8160     2.1990    35.3040 C.2          1 UD11001   0.0000
    22 O2           9.7440     4.1600    37.5440 O.2          1 UD11001   0.0000
    23 O4          14.2680     4.1830    36.9260 O.2          1 UD11001   0.0000
    24 C1B          9.3140     2.1800    35.6150 C.3          1 UD11001   0.0000
    25 C2B          8.8430     2.3980    34.1890 C.3          1 UD11001   0.0000
    26 O2'          8.2050     3.6700    34.1020 O.3          1 UD11001   0.0000
    27 C3B          7.8270     1.2370    34.0170 C.3          1 UD11001   0.0000
    28 C4B          8.4180     0.1010    34.8660 C.3          1 UD11001   0.0000
    29 O4B          9.2780     0.7750    35.8430 O.3          1 UD11001   0.0000
    30 O3B          6.5390     1.6630    34.4930 O.3          1 UD11001   0.0000
    31 C5B          9.3170    -0.8960    34.1530 C.3          1 UD11001   0.0000
    32 O5B         10.1640    -0.1970    33.2600 O.3          1 UD11001   0.0000
    33 PA          11.4210    -0.8730    32.6290 P.3          1 UD11001   0.0000
    34 O1A         12.2680     0.1030    31.8790 O.co2        1 UD11001   0.0000
    35 O2A         12.2320    -1.5570    33.6620 O.co2        1 UD11001  -1.0000
    36 O3A         10.8500    -1.9610    31.7320 O.3          1 UD11001   0.0000
    37 PB          11.3890    -3.2670    30.9520 P.3          1 UD11001   0.0000
    38 O1B         10.7000    -3.2000    29.6400 O.co2        1 UD11001   0.0000
    39 O2B         12.8720    -3.1800    30.6990 O.co2        1 UD11001  -1.0000
    40 H1'          9.9522    -3.7305    33.1436 H            1 UD11001   0.0000
    41 H2'          9.7494    -5.6768    34.5240 H            1 UD11001   0.0000
    42 H3'         11.1984    -7.0705    32.4005 H            1 UD11001   0.0000
    43 H4'          8.4535    -7.4089    33.3017 H            1 UD11001   0.0000
    44 H5'          9.4288    -6.3814    30.7621 H            1 UD11001   0.0000
    45 H6'1         6.6906    -6.4844    31.7168 H            1 UD11001   0.0000
    46 H6'2         7.2745    -7.4369    30.5259 H            1 UD11001   0.0000
    47 H8'1        12.9960    -3.6333    36.9138 H            1 UD11001   0.0000
    48 H8'2        13.6302    -5.0228    36.3361 H            1 UD11001   0.0000
    49 H8'3        13.6634    -3.6687    35.4239 H            1 UD11001   0.0000
    50 H11         12.6015    -5.6278    33.9420 H            1 UD11001   0.0000
    51 H12         11.8745    -8.1550    34.1444 H            1 UD11001   0.0000
    52 H13          8.1685    -9.1212    32.0257 H            1 UD11001   0.0000
    53 H6'          6.3390    -4.9488    30.3163 H            1 UD11001   0.0000
    54 H15         12.1169     4.8518    37.9021 H            1 UD11001   0.0000
    55 H16         13.8280     2.2761    35.1009 H            1 UD11001   0.0000
    56 H17         11.7086     1.4861    34.6110 H            1 UD11001   0.0000
    57 H1B          8.6547     2.6123    36.2302 H            1 UD11001   0.0000
    58 H2B          9.5987     2.3224    33.5384 H            1 UD11001   0.0000
    59 H20          7.4220     3.6934    34.7236 H            1 UD11001   0.0000
    60 H3B          7.7707     0.9621    33.0572 H            1 UD11001   0.0000
    61 H4B          7.6834    -0.3845    35.3400 H            1 UD11001   0.0000
    62 H23          6.4547     1.4464    35.4656 H            1 UD11001   0.0000
    63 H5B1         8.7561    -1.5475    33.6422 H            1 UD11001   0.0000
    64 H5B2         9.8710    -1.3879    34.8247 H            1 UD11001   0.0000
@<TRIPOS>BOND
     1    1    2       1
     2    1   10       1
     3    1   13       1
     4    2    3       1
     5    2    9       1
     6    3    4       1
     7    3   11       1
     8    4    5       1
     9    4   12       1
    10    5    6       1
    11    5   13       1
    12    6   14       1
    13    7    8       1
    14    7    9      am
    15    7   15       2
    16   10   37       1
    17   16   17       1
    18   16   21       1
    19   16   24       1
    20   17   18       1
    21   17   22       2
    22   18   19       1
    23   19   20       1
    24   19   23       2
    25   20   21       2
    26   24   25       1
    27   24   29       1
    28   25   26       1
    29   25   27       1
    30   27   28       1
    31   27   30       1
    32   28   29       1
    33   28   31       1
    34   31   32       1
    35   32   33       1
    36   33   34      ar
    37   33   35      ar
    38   33   36       1
    39   36   37       1
    40   37   38      ar
    41   37   39      ar
    42    1   40       1
    43    2   41       1
    44    3   42       1
    45    4   43       1
    46    5   44       1
    47    6   45       1
    48    6   46       1
    49    8   47       1
    50    8   48       1
    51    8   49       1
    52    9   50       1
    53   11   51       1
    54   12   52       1
    55   14   53       1
    56   18   54       1
    57   20   55       1
    58   21   56       1
    59   24   57       1
    60   25   58       1
    61   26   59       1
    62   27   60       1
    63   28   61       1
    64   30   62       1
    65   31   63       1
    66   31   64       1
@<TRIPOS>SUBSTRUCTURE
     1 UD11001     1 GROUP             4 A     UD1     0 **** UD1 A1001
