@<TRIPOS>MOLECULE
3o0n_5AD_3_ligand
   31    33     1     0     0
SMALL
NO_CHARGES


@<TRIPOS>ATOM
     1 N1         -84.3890   -58.4890   -41.2040 N.ar         1 5AD1004   0.0000
     2 C2         -83.9210   -57.4230   -41.9660 C.ar         1 5AD1004   0.0000
     3 N3         -84.8490   -56.4720   -42.3890 N.ar         1 5AD1004   0.0000
     4 C4         -86.1360   -56.6100   -42.0650 C.ar         1 5AD1004   0.0000
     5 N9         -87.1780   -55.8440   -42.3490 N.pl3        1 5AD1004   0.0000
     6 C8         -88.2640   -56.3910   -41.8010 C.2          1 5AD1004   0.0000
     7 N7         -87.8790   -57.5020   -41.1710 N.2          1 5AD1004   0.0000
     8 C5         -86.5610   -57.6410   -41.3300 C.ar         1 5AD1004   0.0000
     9 C6         -85.6920   -58.5650   -40.9080 C.ar         1 5AD1004   0.0000
    10 N6         -86.1720   -59.5740   -40.1800 N.pl3        1 5AD1004   0.0000
    11 C1'        -86.9950   -54.6190   -43.1620 C.3          1 5AD1004   0.0000
    12 C2'        -86.5120   -54.9990   -44.5490 C.3          1 5AD1004   0.0000
    13 C3'        -87.1670   -53.9750   -45.4690 C.3          1 5AD1004   0.0000
    14 C4'        -88.1750   -53.2420   -44.5930 C.3          1 5AD1004   0.0000
    15 C5'        -89.5320   -53.3430   -45.2780 C.3          1 5AD1004   0.0000
    16 O4'        -88.2570   -53.9630   -43.3560 O.3          1 5AD1004   0.0000
    17 O2'        -85.0730   -54.8920   -44.6140 O.3          1 5AD1004   0.0000
    18 O3'        -86.1870   -53.0420   -45.9840 O.3          1 5AD1004   0.0000
    19 H1         -82.9527   -57.3417   -42.2021 H            1 5AD1004   0.0000
    20 H2         -89.1965   -56.0336   -41.8529 H            1 5AD1004   0.0000
    21 H3         -87.1481   -59.6169   -39.9671 H            1 5AD1004   0.0000
    22 H4         -85.5558   -60.2877   -39.8470 H            1 5AD1004   0.0000
    23 H1'        -86.3435   -54.0011   -42.7218 H            1 5AD1004   0.0000
    24 H2'        -86.8079   -55.9248   -44.7842 H            1 5AD1004   0.0000
    25 H3'        -87.6348   -54.4365   -46.2228 H            1 5AD1004   0.0000
    26 H4'        -87.9085   -52.2895   -44.4455 H            1 5AD1004   0.0000
    27 H5'1       -90.2196   -52.8701   -44.7270 H            1 5AD1004   0.0000
    28 H5'2       -89.4811   -52.9198   -46.1826 H            1 5AD1004   0.0000
    29 H5'3       -89.7861   -54.3054   -45.3741 H            1 5AD1004   0.0000
    30 H12        -84.6839   -55.0773   -43.7117 H            1 5AD1004   0.0000
    31 H13        -86.1689   -53.0948   -46.9824 H            1 5AD1004   0.0000
@<TRIPOS>BOND
     1    1    2      ar
     2    1    9      ar
     3    2    3      ar
     4    3    4      ar
     5    4    5       1
     6    4    8      ar
     7    5    6       1
     8    5   11       1
     9    6    7       2
    10    7    8       1
    11    8    9      ar
    12    9   10       1
    13   11   12       1
    14   11   16       1
    15   12   13       1
    16   12   17       1
    17   13   14       1
    18   13   18       1
    19   14   15       1
    20   14   16       1
    21    2   19       1
    22    6   20       1
    23   10   21       1
    24   10   22       1
    25   11   23       1
    26   12   24       1
    27   13   25       1
    28   14   26       1
    29   15   27       1
    30   15   28       1
    31   15   29       1
    32   17   30       1
    33   18   31       1
@<TRIPOS>SUBSTRUCTURE
     1 5AD1004     1 GROUP             4 B     5AD     0 **** 5AD B1004
