@<TRIPOS>MOLECULE
1dx4_760_1_ligand
   45    48     1     0     0
SMALL
NO_CHARGES


@<TRIPOS>ATOM
     1 C1          31.1460    64.5180     9.7270 C.3          1 7601580   0.0000
     2 C2          30.1860    64.6930     8.5380 C.3          1 7601580   0.0000
     3 C3          29.8240    65.9930     8.5630 C.3          1 7601580   0.0000
     4 C4          31.1050    66.9730     8.2850 C.3          1 7601580   0.0000
     5 C5          33.6260    67.6310     8.3310 C.3          1 7601580   0.0000
     6 C6          35.8070    67.7410    10.0320 C.ar         1 7601580   0.0000
     7 C7          36.8770    67.3910    11.0000 C.ar         1 7601580   0.0000
     8 C8          36.7840    66.1440    11.6210 C.ar         1 7601580   0.0000
     9 C9          35.6820    65.2880    11.3410 C.ar         1 7601580   0.0000
    10 N10         33.4990    64.7250    10.2710 N.pl3        1 7601580   0.0000
    11 C11         32.6230    65.2610     9.6370 C.2          1 7601580   0.0000
    12 C12         32.5700    66.5480     8.8400 C.2          1 7601580   0.0000
    13 C13         34.5920    67.0380     9.5600 C.ar         1 7601580   0.0000
    14 C14         34.5290    65.6200    10.3650 C.ar         1 7601580   0.0000
    15 N15         33.5960    69.0700     8.2780 N.4          1 7601580   1.0000
    16 C17         32.3820    69.8410     7.9060 C.3          1 7601580   0.0000
    17 C18         31.2000    70.3000     8.8920 C.ar         1 7601580   0.0000
    18 C19         30.4290    69.4960     9.7690 C.ar         1 7601580   0.0000
    19 C20         29.4370    70.0470    10.4890 C.ar         1 7601580   0.0000
    20 C21         29.1450    71.3840    10.3950 C.ar         1 7601580   0.0000
    21 C22         29.8930    72.2010     9.5560 C.ar         1 7601580   0.0000
    22 C23         30.9440    71.6820     8.7780 C.ar         1 7601580   0.0000
    23 H1          31.3106    63.5377     9.8366 H            1 7601580   0.0000
    24 H2          30.6827    64.8711    10.5398 H            1 7601580   0.0000
    25 H3          29.3850    64.1039     8.6446 H            1 7601580   0.0000
    26 H4          30.6486    64.4744     7.6788 H            1 7601580   0.0000
    27 H5          29.4393    66.2067     9.4610 H            1 7601580   0.0000
    28 H6          29.1330    66.1523     7.8579 H            1 7601580   0.0000
    29 H7          30.8861    67.8604     8.6908 H            1 7601580   0.0000
    30 H8          31.1866    67.0711     7.2932 H            1 7601580   0.0000
    31 H9          34.0026    67.3034     7.4645 H            1 7601580   0.0000
    32 H10         35.9331    68.6391     9.6107 H            1 7601580   0.0000
    33 H11         37.6294    68.0193    11.1980 H            1 7601580   0.0000
    34 H12         37.4926    65.8519    12.2633 H            1 7601580   0.0000
    35 H13         35.6508    64.4056    11.8105 H            1 7601580   0.0000
    36 H14         33.4761    63.8018    10.6547 H            1 7601580   0.0000
    37 H15         34.3029    69.3363     7.6228 H            1 7601580   0.0000
    38 H16         31.9330    69.2933     7.2000 H            1 7601580   0.0000
    39 H17         32.7265    70.6883     7.5018 H            1 7601580   0.0000
    40 H18         30.6234    68.5186     9.8519 H            1 7601580   0.0000
    41 H19         28.9009    69.4707    11.1058 H            1 7601580   0.0000
    42 H20         28.3940    71.7707    10.9302 H            1 7601580   0.0000
    43 H21         29.6801    73.1767     9.5042 H            1 7601580   0.0000
    44 H22         31.4844    72.2660     8.1723 H            1 7601580   0.0000
    45 H23         33.8529    69.3847     9.1918 H            1 7601580   0.0000
@<TRIPOS>BOND
     1    1    2       1
     2    1   11       1
     3    2    3       1
     4    3    4       1
     5    4   12       1
     6    5   12       1
     7    5   13       1
     8    5   15       1
     9    6    7      ar
    10    6   13      ar
    11    7    8      ar
    12    8    9      ar
    13    9   14      ar
    14   10   11       1
    15   10   14       1
    16   11   12       2
    17   13   14      ar
    18   15   16       1
    19   16   17       1
    20   17   18      ar
    21   17   22      ar
    22   18   19      ar
    23   19   20      ar
    24   20   21      ar
    25   21   22      ar
    26    1   23       1
    27    1   24       1
    28    2   25       1
    29    2   26       1
    30    3   27       1
    31    3   28       1
    32    4   29       1
    33    4   30       1
    34    5   31       1
    35    6   32       1
    36    7   33       1
    37    8   34       1
    38    9   35       1
    39   10   36       1
    40   15   37       1
    41   16   38       1
    42   16   39       1
    43   18   40       1
    44   19   41       1
    45   20   42       1
    46   21   43       1
    47   22   44       1
    48   15   45       1
@<TRIPOS>SUBSTRUCTURE
     1 7601580     1 GROUP             4 A     760     0 **** 760 A1580
