@<TRIPOS>MOLECULE
3tqh_NDP_1_ligand
   73    77     1     0     0
SMALL
NO_CHARGES


@<TRIPOS>ATOM
     1 PA          17.4710    13.7140    73.0340 P.3          1 NDP500   0.0000
     2 O1A         18.5980    14.5920    73.4030 O.co2        1 NDP500   0.0000
     3 O2A         17.4260    13.4730    71.5790 O.co2        1 NDP500  -1.0000
     4 O5B         16.0800    14.3740    73.4940 O.3          1 NDP500   0.0000
     5 C5B         15.8970    15.7680    73.3380 C.3          1 NDP500   0.0000
     6 C4B         14.4340    16.1240    73.5520 C.3          1 NDP500   0.0000
     7 O4B         14.1530    16.1330    74.9360 O.3          1 NDP500   0.0000
     8 C3B         14.0430    17.5010    73.0310 C.3          1 NDP500   0.0000
     9 O3B         13.2480    17.3620    71.8730 O.3          1 NDP500   0.0000
    10 C2B         13.2780    18.1610    74.1740 C.3          1 NDP500   0.0000
    11 O2B         12.0290    18.6790    73.7730 O.3          1 NDP500   0.0000
    12 C1B         13.0850    17.0230    75.1620 C.3          1 NDP500   0.0000
    13 N9A         13.0910    17.4280    76.5760 N.pl3        1 NDP500   0.0000
    14 C8A         14.1360    17.9810    77.2740 C.2          1 NDP500   0.0000
    15 N7A         13.7440    18.1790    78.5490 N.2          1 NDP500   0.0000
    16 C5A         12.4680    17.7610    78.6760 C.ar         1 NDP500   0.0000
    17 C6A         11.6030    17.7480    79.7610 C.ar         1 NDP500   0.0000
    18 N6A         12.0120    18.2100    80.9310 N.pl3        1 NDP500   0.0000
    19 N1A         10.3250    17.2600    79.6070 N.ar         1 NDP500   0.0000
    20 C2A          9.9180    16.7810    78.3700 C.ar         1 NDP500   0.0000
    21 N3A         10.7820    16.7870    77.2890 N.ar         1 NDP500   0.0000
    22 C4A         12.0420    17.2780    77.4440 C.ar         1 NDP500   0.0000
    23 O3          17.5380    12.3310    73.8570 O.3          1 NDP500   0.0000
    24 PN          17.1930    10.8540    73.3030 P.3          1 NDP500   0.0000
    25 O1N         18.2820    10.4090    72.4080 O.co2        1 NDP500   0.0000
    26 O2N         15.8030    10.7510    72.8350 O.co2        1 NDP500  -1.0000
    27 O5D         17.3230    10.0270    74.6750 O.3          1 NDP500   0.0000
    28 C5D         16.5790    10.3730    75.8270 C.3          1 NDP500   0.0000
    29 C4D         17.1930     9.7090    77.0550 C.3          1 NDP500   0.0000
    30 O4D         17.1560     8.3010    76.9190 O.3          1 NDP500   0.0000
    31 C3D         18.6490    10.1110    77.2380 C.3          1 NDP500   0.0000
    32 O3D         18.8830    10.4230    78.5920 O.3          1 NDP500   0.0000
    33 C2D         19.4310     8.8930    76.7940 C.3          1 NDP500   0.0000
    34 O2D         20.6810     8.7780    77.4490 O.3          1 NDP500   0.0000
    35 C1D         18.4530     7.7590    77.1180 C.3          1 NDP500   0.0000
    36 N1N         18.6200     6.5300    76.3080 N.ar         1 NDP500   1.0000
    37 C2N         18.7010     5.3330    76.9760 C.ar         1 NDP500   0.0000
    38 C3N         18.9160     4.1270    76.3130 C.ar         1 NDP500   0.0000
    39 C7N         19.0010     2.8270    77.0580 C.2          1 NDP500   0.0000
    40 O7N         19.2350     1.6430    76.3260 O.2          1 NDP500   0.0000
    41 N7N         18.8660     2.8140    78.3830 N.am         1 NDP500   0.0000
    42 C4N         19.0650     4.1570    74.8180 C.ar         1 NDP500   0.0000
    43 C5N         18.9560     5.4900    74.1490 C.ar         1 NDP500   0.0000
    44 C6N         18.7330     6.6150    74.9380 C.ar         1 NDP500   0.0000
    45 P2B         11.7730    20.2670    73.6840 P.3          1 NDP500   0.0000
    46 O1X         10.4720    20.4940    72.9560 O.co2        1 NDP500   0.0000
    47 O2X         12.8880    20.9300    72.9120 O.co2        1 NDP500  -1.0000
    48 O3X         11.6790    20.8910    75.0500 O.co2        1 NDP500  -1.0000
    49 H5B1        16.1725    16.0376    72.4153 H            1 NDP500   0.0000
    50 H5B2        16.4581    16.2534    74.0086 H            1 NDP500   0.0000
    51 H4B         13.8626    15.4336    73.1082 H            1 NDP500   0.0000
    52 H3B         14.8640    18.0312    72.8193 H            1 NDP500   0.0000
    53 H5          13.3899    18.1505    71.2746 H            1 NDP500   0.0000
    54 H2B         13.8329    18.8834    74.5865 H            1 NDP500   0.0000
    55 H1B         12.2235    16.5573    74.9594 H            1 NDP500   0.0000
    56 H8A         15.0370    18.2002    76.8996 H            1 NDP500   0.0000
    57 H6A1        11.3923    18.2027    81.7158 H            1 NDP500   0.0000
    58 H6A2        12.9409    18.5666    81.0307 H            1 NDP500   0.0000
    59 H2A          8.9893    16.4273    78.2583 H            1 NDP500   0.0000
    60 H5D1        15.6347    10.0622    75.7184 H            1 NDP500   0.0000
    61 H5D2        16.5917    11.3659    75.9449 H            1 NDP500   0.0000
    62 H4D         16.6736     9.9749    77.8671 H            1 NDP500   0.0000
    63 H3D         18.8685    10.8953    76.6578 H            1 NDP500   0.0000
    64 H16         18.2712     9.8821    79.1692 H            1 NDP500   0.0000
    65 H2D         19.5765     8.9339    75.8055 H            1 NDP500   0.0000
    66 H18         20.7148     7.9153    77.9536 H            1 NDP500   0.0000
    67 H1D         18.5527     7.5193    78.0837 H            1 NDP500   0.0000
    68 H2N         18.6024     5.3269    77.9711 H            1 NDP500   0.0000
    69 H7N1        18.9220     1.9497    78.8828 H            1 NDP500   0.0000
    70 H7N2        18.7086     3.6685    78.8780 H            1 NDP500   0.0000
    71 H4N         19.2299     3.3218    74.2933 H            1 NDP500   0.0000
    72 H5N         19.0415     5.5715    73.1560 H            1 NDP500   0.0000
    73 H6N         18.6526     7.5094    74.4980 H            1 NDP500   0.0000
@<TRIPOS>BOND
     1    1    2      ar
     2    1    3      ar
     3    1    4       1
     4    1   23       1
     5    4    5       1
     6    5    6       1
     7    6    7       1
     8    6    8       1
     9    7   12       1
    10    8    9       1
    11    8   10       1
    12   10   11       1
    13   10   12       1
    14   11   45       1
    15   12   13       1
    16   13   14       1
    17   13   22       1
    18   14   15       2
    19   15   16       1
    20   16   17      ar
    21   16   22      ar
    22   17   18       1
    23   17   19      ar
    24   19   20      ar
    25   20   21      ar
    26   21   22      ar
    27   23   24       1
    28   24   25      ar
    29   24   26      ar
    30   24   27       1
    31   27   28       1
    32   28   29       1
    33   29   30       1
    34   29   31       1
    35   30   35       1
    36   31   32       1
    37   31   33       1
    38   33   34       1
    39   33   35       1
    40   35   36       1
    41   36   37      ar
    42   36   44      ar
    43   37   38      ar
    44   38   39       1
    45   38   42      ar
    46   39   40       2
    47   39   41      am
    48   42   43      ar
    49   43   44      ar
    50   45   46      ar
    51   45   47      ar
    52   45   48      ar
    53   43   72       1
    54    5   49       1
    55    5   50       1
    56    6   51       1
    57    8   52       1
    58    9   53       1
    59   10   54       1
    60   12   55       1
    61   14   56       1
    62   18   57       1
    63   18   58       1
    64   20   59       1
    65   44   73       1
    66   28   60       1
    67   28   61       1
    68   29   62       1
    69   31   63       1
    70   32   64       1
    71   33   65       1
    72   34   66       1
    73   35   67       1
    74   37   68       1
    75   41   69       1
    76   41   70       1
    77   42   71       1
@<TRIPOS>SUBSTRUCTURE
     1 NDP500      1 GROUP             4 A     NDP     0 **** NDP A 500
