@<TRIPOS>MOLECULE
./coach420/1xdh/ligand.pdb
 95 92 0 0 0
SMALL
GASTEIGER

@<TRIPOS>ATOM
      1  CA        12.4350   70.0730   28.5110 C.3   1347  IVA1347     0.0868
      2  CB        12.9070   69.7170   29.9090 C.3   1347  IVA1347     0.0091
      3  CG1       13.2190   70.9900   30.6970 C.3   1347  IVA1347     0.0005
      4  CG2       14.1320   68.8190   29.8720 C.3   1347  IVA1347     0.0005
      5  C         12.2360   68.8270   27.6810 C.2   1347  IVA1347     0.2418
      6  O         11.2450   68.1400   27.8550 O.2   1347  IVA1347    -0.2733
      7  N         13.1870   68.5500   26.7940 N.am  1348  VAL1348    -0.1978
      8  CA        13.1810   67.3890   25.9360 C.3   1348  VAL1348     0.1726
      9  C         14.4120   66.5660   26.2040 C.2   1348  VAL1348     0.2616
     10  O         15.4790   67.1400   26.2600 O.2   1348  VAL1348    -0.2715
     11  CB        13.1100   67.8760   24.4980 C.3   1348  VAL1348     0.0290
     12  CG1       13.3550   66.7400   23.5160 C.3   1348  VAL1348     0.0023
     13  CG2       11.7590   68.5410   24.2340 C.3   1348  VAL1348     0.0023
     14  N         14.2390   65.2690   26.3820 N.am  1349  VAL1349    -0.1963
     15  CA        15.3040   64.3250   26.6930 C.3   1349  VAL1349     0.1727
     16  C         15.1490   63.1420   25.7760 C.2   1349  VAL1349     0.2612
     17  O         14.1690   62.4050   25.8510 O.2   1349  VAL1349    -0.2715
     18  CB        15.2960   63.8870   28.1500 C.3   1349  VAL1349     0.0290
     19  CG1       16.4390   62.9280   28.4730 C.3   1349  VAL1349     0.0023
     20  CG2       15.3680   65.0890   29.0810 C.3   1349  VAL1349     0.0023
     21  N         16.1250   62.9860   24.8820 N.am  1350  STA1350    -0.2031
     22  CA        16.0620   61.9900   23.8290 C.3   1350  STA1350     0.1261
     23  CB        15.7970   62.6580   22.4830 C.3   1350  STA1350     0.0243
     24  CG        14.5270   63.5090   22.4300 C.3   1350  STA1350     0.0018
     25  CD1       13.2640   62.6570   22.5010 C.3   1350  STA1350     0.0001
     26  CD2       14.5590   64.4000   21.1970 C.3   1350  STA1350     0.0001
     27  CH        17.3780   61.2140   23.8000 C.3   1350  STA1350     0.1809
     28  OH        18.4440   62.1170   23.6550 O.3   1350  STA1350    -0.2208
     29  CM        17.6090   60.3850   25.0510 C.3   1350  STA1350     0.1214
     30  C         16.7670   59.1390   24.9910 C.2   1350  STA1350     0.2444
     31  O         15.7060   59.0750   25.5900 O.2   1350  STA1350    -0.2732
     32  N         17.2570   58.1110   24.3000 N.am  1351  ALA1351    -0.1977
     33  CA        16.5830   56.8330   24.2690 C.3   1351  ALA1351     0.1728
     34  C         16.5600   56.1580   25.6150 C.2   1351  ALA1351     0.2612
     35  O         17.4580   56.3820   26.4180 O.2   1351  ALA1351    -0.2715
     36  CB        17.2710   55.9100   23.2680 C.3   1351  ALA1351     0.0334
     37  N         15.5520   55.3130   25.8320 N.am  1352  STA1352    -0.2031
     38  CA        15.4060   54.4850   27.0210 C.3   1352  STA1352     0.1262
     39  CB        13.9670   54.5220   27.5250 C.3   1352  STA1352     0.0243
     40  CG        13.5950   55.6860   28.4360 C.3   1352  STA1352     0.0018
     41  CD1       14.4280   55.7170   29.7090 C.3   1352  STA1352     0.0001
     42  CD2       12.1150   55.5940   28.7950 C.3   1352  STA1352     0.0001
     43  CH        15.7680   53.0340   26.6940 C.3   1352  STA1352     0.1830
     44  OH        14.7240   52.4710   25.9080 O.3   1352  STA1352    -0.2207
     45  CM        17.0910   52.8670   25.9420 C.3   1352  STA1352     0.1486
     46  C         17.2890   51.4160   25.5560 C.2   1352  STA1352     0.3675
     47  O         16.9890   50.4560   26.4220 O.co2 1352  STA1352    -0.2456
     48  OXT       17.7120   51.1110   24.4490 O.co2 1352  STA1352    -0.2456
     49  CB         1.2740   69.3000   36.5100 C.3   1347  IVA1347     0.0000
     50  CG1        0.9510   70.7530   36.1580 C.3   1347  IVA1347     0.0000
     51  CG2        0.0350   68.4080   36.4180 C.3   1347  IVA1347     0.0000
     52  C          2.1230   67.7890   38.2990 C.2   1347  IVA1347     0.3205
     53  O          3.0370   67.1210   37.8260 O.2   1347  IVA1347    -0.2633
     54  N          1.2500   67.3030   39.1740 N.am  1348  VAL1348    -0.1901
     55  CA         1.2600   65.9220   39.5870 C.3   1348  VAL1348     0.1731
     56  C          0.0040   65.2700   39.1260 C.2   1348  VAL1348     0.2616
     57  O         -1.0350   65.8500   39.2820 O.2   1348  VAL1348    -0.2715
     58  CB         1.3630   65.8060   41.0900 C.3   1348  VAL1348     0.0290
     59  CG1        1.5280   64.3730   41.5650 C.3   1348  VAL1348     0.0023
     60  CG2        2.5290   66.6560   41.5480 C.3   1348  VAL1348     0.0023
     61  N          0.1320   64.0810   38.5760 N.am  1349  VAL1349    -0.1963
     62  CA        -0.9700   63.2850   38.0950 C.3   1349  VAL1349     0.1727
     63  C         -0.7830   61.8950   38.6380 C.2   1349  VAL1349     0.2612
     64  O          0.1910   61.2360   38.3020 O.2   1349  VAL1349    -0.2715
     65  CB        -1.0230   63.3290   36.5760 C.3   1349  VAL1349     0.0290
     66  CG1       -2.1690   62.4910   36.0200 C.3   1349  VAL1349     0.0023
     67  CG2       -1.1520   64.7540   36.0450 C.3   1349  VAL1349     0.0023
     68  N         -1.6930   61.4830   39.5180 N.am  1350  STA1350    -0.2031
     69  CA        -1.6070   60.2120   40.2280 C.3   1350  STA1350     0.1261
     70  CB        -1.2370   60.4070   41.6940 C.3   1350  STA1350     0.0243
     71  CG        -0.0210   61.2950   41.9400 C.3   1350  STA1350     0.0018
     72  CD1        1.2850   60.5880   41.5980 C.3   1350  STA1350     0.0001
     73  CD2       -0.0060   61.7900   43.3880 C.3   1350  STA1350     0.0001
     74  CH        -2.9450   59.4870   40.1140 C.3   1350  STA1350     0.1809
     75  OH        -3.9940   60.3550   40.5230 O.3   1350  STA1350    -0.2208
     76  CM        -3.2250   59.0290   38.6940 C.3   1350  STA1350     0.1214
     77  C         -2.3870   57.8250   38.3380 C.2   1350  STA1350     0.2444
     78  O         -1.3890   57.9380   37.6390 O.2   1350  STA1350    -0.2732
     79  N         -2.8120   56.6510   38.7900 N.am  1351  ALA1351    -0.1977
     80  CA        -2.1800   55.4030   38.4050 C.3   1351  ALA1351     0.1728
     81  C         -2.3360   55.1080   36.9380 C.2   1351  ALA1351     0.2612
     82  O         -3.2620   55.5970   36.3090 O.2   1351  ALA1351    -0.2715
     83  CB        -2.7710   54.2500   39.2140 C.3   1351  ALA1351     0.0334
     84  N         -1.4270   54.2870   36.4000 N.am  1352  STA1352    -0.2031
     85  CA        -1.4670   53.8280   35.0200 C.3   1352  STA1352     0.1262
     86  CB        -0.1530   54.1440   34.3160 C.3   1352  STA1352     0.0243
     87  CG        -0.0160   55.6180   33.9420 C.3   1352  STA1352     0.0018
     88  CD1       -1.0720   56.0430   32.9240 C.3   1352  STA1352     0.0001
     89  CD2        1.3940   55.9020   33.4270 C.3   1352  STA1352     0.0001
     90  CH        -1.7340   52.3250   35.0090 C.3   1352  STA1352     0.1830
     91  OH        -0.6610   51.6500   35.6520 O.3   1352  STA1352    -0.2207
     92  CM        -3.0480   51.9880   35.7160 C.3   1352  STA1352     0.1486
     93  C         -3.3410   50.5070   35.6160 C.2   1352  STA1352     0.3675
     94  O         -3.1220   49.7070   36.6570 O.co2 1352  STA1352    -0.2456
     95  OXT       -3.7740   50.0400   34.5760 O.co2 1352  STA1352    -0.2456
@<TRIPOS>BOND
     1     1     5    1
     2     1     2    1
     3     2     4    1
     4     2     3    1
     5     5     7   am
     6     5     6    2
     7     7     8    1
     8     8    11    1
     9     8     9    1
    10     9    10    2
    11     9    14   am
    12    11    12    1
    13    11    13    1
    14    14    15    1
    15    15    16    1
    16    15    18    1
    17    16    21   am
    18    16    17    2
    19    18    19    1
    20    18    20    1
    21    21    22    1
    22    22    23    1
    23    22    27    1
    24    23    24    1
    25    24    26    1
    26    24    25    1
    27    27    28    1
    28    27    29    1
    29    29    30    1
    30    30    32   am
    31    30    31    2
    32    32    33    1
    33    33    36    1
    34    33    34    1
    35    34    37   am
    36    34    35    2
    37    37    38    1
    38    38    43    1
    39    38    39    1
    40    39    40    1
    41    40    42    1
    42    40    41    1
    43    43    44    1
    44    43    45    1
    45    45    46    1
    46    46    48   ar
    47    46    47   ar
    48    49    50    1
    49    49    51    1
    50    52    53    2
    51    52    54   am
    52    54    55    1
    53    55    56    1
    54    55    58    1
    55    56    61   am
    56    56    57    2
    57    58    60    1
    58    58    59    1
    59    61    62    1
    60    62    65    1
    61    62    63    1
    62    63    64    2
    63    63    68   am
    64    65    66    1
    65    65    67    1
    66    68    69    1
    67    69    74    1
    68    69    70    1
    69    70    71    1
    70    71    72    1
    71    71    73    1
    72    74    76    1
    73    74    75    1
    74    76    77    1
    75    77    78    2
    76    77    79   am
    77    79    80    1
    78    80    81    1
    79    80    83    1
    80    81    82    2
    81    81    84   am
    82    84    85    1
    83    85    86    1
    84    85    90    1
    85    86    87    1
    86    87    88    1
    87    87    89    1
    88    90    91    1
    89    90    92    1
    90    92    93    1
    91    93    95   ar
    92    93    94   ar
