@<TRIPOS>MOLECULE
3i99_FAD_1_ligand
   84    89     1     0     0
SMALL
NO_CHARGES


@<TRIPOS>ATOM
     1 PA          40.3170    10.0380    19.8720 P.3          1 FAD358   0.0000
     2 O1A         39.2140     9.3300    19.1750 O.co2        1 FAD358   0.0000
     3 O2A         41.5620     9.1710    20.0740 O.co2        1 FAD358  -1.0000
     4 O5B         40.7680    11.3040    19.0030 O.3          1 FAD358   0.0000
     5 C5B         39.7810    12.2550    18.6210 C.3          1 FAD358   0.0000
     6 C4B         40.4260    13.4390    17.9330 C.3          1 FAD358   0.0000
     7 O4B         41.2440    14.2380    18.8190 O.3          1 FAD358   0.0000
     8 C3B         41.3380    12.9860    16.7720 C.3          1 FAD358   0.0000
     9 O3B         41.2290    14.0030    15.8040 O.3          1 FAD358   0.0000
    10 C2B         42.6890    13.1050    17.4310 C.3          1 FAD358   0.0000
    11 O2B         43.7610    13.2550    16.5570 O.3          1 FAD358   0.0000
    12 C1B         42.5730    14.3130    18.3360 C.3          1 FAD358   0.0000
    13 N9A         43.4260    14.1910    19.5440 N.pl3        1 FAD358   0.0000
    14 C8A         43.4540    13.1100    20.4230 C.2          1 FAD358   0.0000
    15 N7A         44.3220    13.4180    21.4280 N.2          1 FAD358   0.0000
    16 C5A         44.8670    14.6420    21.2050 C.ar         1 FAD358   0.0000
    17 C6A         45.7860    15.4170    21.9370 C.ar         1 FAD358   0.0000
    18 N6A         46.3740    15.0130    23.0810 N.pl3        1 FAD358   0.0000
    19 N1A         46.1090    16.6430    21.4550 N.ar         1 FAD358   0.0000
    20 C2A         45.5420    17.1210    20.2930 C.ar         1 FAD358   0.0000
    21 N3A         44.6590    16.3480    19.5760 N.ar         1 FAD358   0.0000
    22 C4A         44.2890    15.1430    20.0500 C.ar         1 FAD358   0.0000
    23 N1          31.4460    12.2700    23.3550 N.2          1 FAD358   0.0000
    24 C2          30.7660    13.2630    23.9880 C.2          1 FAD358   0.0000
    25 O2          31.0720    14.4300    23.7410 O.2          1 FAD358   0.0000
    26 N3          29.7340    12.9530    24.8630 N.pl3        1 FAD358   0.0000
    27 C4          29.3420    11.6760    25.1150 C.2          1 FAD358   0.0000
    28 O4          28.3970    11.4680    25.9340 O.2          1 FAD358   0.0000
    29 C4X         30.0430    10.6300    24.4890 C.2          1 FAD358   0.0000
    30 N5          29.6800     9.3180    24.7180 N.2          1 FAD358   0.0000
    31 C5X         30.3860     8.3180    24.0510 C.ar         1 FAD358   0.0000
    32 C6          30.0660     6.9760    24.2950 C.ar         1 FAD358   0.0000
    33 C7          30.8000     5.9470    23.6820 C.ar         1 FAD358   0.0000
    34 C7M         30.4090     4.5030    23.9540 C.3          1 FAD358   0.0000
    35 C8          31.8430     6.2790    22.7970 C.ar         1 FAD358   0.0000
    36 C8M         32.6290     5.1940    22.0770 C.3          1 FAD358   0.0000
    37 C9          32.1680     7.6220    22.5540 C.ar         1 FAD358   0.0000
    38 C9A         31.4290     8.6250    23.1690 C.ar         1 FAD358   0.0000
    39 N10         31.7570     9.9430    22.9260 N.pl3        1 FAD358   0.0000
    40 C10         31.0620    10.9350    23.5880 C.2          1 FAD358   0.0000
    41 C1'         32.8200    10.3360    21.9290 C.3          1 FAD358   0.0000
    42 C2'         34.1800    10.4140    22.6220 C.3          1 FAD358   0.0000
    43 O2'         34.1220     9.7060    23.8530 O.3          1 FAD358   0.0000
    44 C3'         34.7850    11.7980    22.8260 C.3          1 FAD358   0.0000
    45 O3'         34.8350    12.5290    21.6100 O.3          1 FAD358   0.0000
    46 C4'         36.1910    11.7520    23.4040 C.3          1 FAD358   0.0000
    47 O4'         36.5710    13.0800    23.7860 O.3          1 FAD358   0.0000
    48 C5'         37.2900    11.2410    22.4520 C.3          1 FAD358   0.0000
    49 O5'         38.4340    10.8500    23.2120 O.3          1 FAD358   0.0000
    50 P           39.6220     9.9520    22.5580 P.3          1 FAD358   0.0000
    51 O1P         40.6490     9.9740    23.6480 O.co2        1 FAD358   0.0000
    52 O2P         39.0660     8.6020    22.1460 O.co2        1 FAD358  -1.0000
    53 O3P         39.9760    10.7480    21.2340 O.3          1 FAD358   0.0000
    54 H5B1        39.2960    12.5718    19.4361 H            1 FAD358   0.0000
    55 H5B2        39.1326    11.8230    17.9942 H            1 FAD358   0.0000
    56 H4B         39.7032    14.0203    17.5594 H            1 FAD358   0.0000
    57 H3B         41.1327    12.0705    16.4260 H            1 FAD358   0.0000
    58 H5          40.4764    13.7907    15.1807 H            1 FAD358   0.0000
    59 H2B         42.8446    12.2940    17.9950 H            1 FAD358   0.0000
    60 H7          44.5813    12.8525    16.9634 H            1 FAD358   0.0000
    61 H1B         42.7435    15.1663    17.8433 H            1 FAD358   0.0000
    62 H8A         42.9319    12.2619    20.3328 H            1 FAD358   0.0000
    63 H6A1        47.0192    15.6151    23.5513 H            1 FAD358   0.0000
    64 H6A2        46.1650    14.1112    23.4592 H            1 FAD358   0.0000
    65 H2A         45.7748    18.0378    19.9686 H            1 FAD358   0.0000
    66 H13         29.2590    13.7004    25.3275 H            1 FAD358   0.0000
    67 H14         29.3103     6.7492    24.9094 H            1 FAD358   0.0000
    68 H7M1        31.0198     3.8918    23.4506 H            1 FAD358   0.0000
    69 H7M2        30.4837     4.3163    24.9336 H            1 FAD358   0.0000
    70 H7M3        29.4664     4.3512    23.6567 H            1 FAD358   0.0000
    71 H8M1        33.3241     5.6163    21.4952 H            1 FAD358   0.0000
    72 H8M2        33.0724     4.6016    22.7496 H            1 FAD358   0.0000
    73 H8M3        32.0073     4.6507    21.5128 H            1 FAD358   0.0000
    74 H21         32.9249     7.8553    21.9435 H            1 FAD358   0.0000
    75 H1'1        32.5949    11.2289    21.5390 H            1 FAD358   0.0000
    76 H1'2        32.8585     9.6536    21.1991 H            1 FAD358   0.0000
    77 H2'         34.8198     9.9118    22.0402 H            1 FAD358   0.0000
    78 H25         34.7934     8.9649    23.8433 H            1 FAD358   0.0000
    79 H3'         34.2029    12.2998    23.4658 H            1 FAD358   0.0000
    80 H27         33.9887    13.0500    21.4992 H            1 FAD358   0.0000
    81 H4'         36.1820    11.1749    24.2206 H            1 FAD358   0.0000
    82 H29         37.2038    13.0363    24.5591 H            1 FAD358   0.0000
    83 H5'1        37.5453    11.9693    21.8161 H            1 FAD358   0.0000
    84 H5'2        36.9467    10.4549    21.9380 H            1 FAD358   0.0000
@<TRIPOS>BOND
     1    1    2      ar
     2    1    3      ar
     3    1    4       1
     4    1   53       1
     5    4    5       1
     6    5    6       1
     7    6    7       1
     8    6    8       1
     9    7   12       1
    10    8    9       1
    11    8   10       1
    12   10   11       1
    13   10   12       1
    14   12   13       1
    15   13   14       1
    16   13   22       1
    17   14   15       2
    18   15   16       1
    19   16   17      ar
    20   16   22      ar
    21   17   18       1
    22   17   19      ar
    23   19   20      ar
    24   20   21      ar
    25   21   22      ar
    26   23   24       1
    27   23   40       2
    28   24   25       2
    29   24   26       1
    30   26   27       1
    31   27   28       2
    32   27   29       1
    33   29   30       2
    34   29   40       1
    35   30   31       1
    36   31   32      ar
    37   31   38      ar
    38   32   33      ar
    39   33   34       1
    40   33   35      ar
    41   35   36       1
    42   35   37      ar
    43   37   38      ar
    44   38   39       1
    45   39   40       1
    46   39   41       1
    47   41   42       1
    48   42   43       1
    49   42   44       1
    50   44   45       1
    51   44   46       1
    52   46   47       1
    53   46   48       1
    54   48   49       1
    55   49   50       1
    56   50   51      ar
    57   50   52      ar
    58   50   53       1
    59   48   84       1
    60    5   54       1
    61    5   55       1
    62    6   56       1
    63    8   57       1
    64    9   58       1
    65   10   59       1
    66   11   60       1
    67   12   61       1
    68   14   62       1
    69   18   63       1
    70   18   64       1
    71   20   65       1
    72   26   66       1
    73   32   67       1
    74   34   68       1
    75   34   69       1
    76   34   70       1
    77   36   71       1
    78   36   72       1
    79   36   73       1
    80   37   74       1
    81   41   75       1
    82   41   76       1
    83   42   77       1
    84   43   78       1
    85   44   79       1
    86   45   80       1
    87   46   81       1
    88   47   82       1
    89   48   83       1
@<TRIPOS>SUBSTRUCTURE
     1 FAD358      1 GROUP             4 A     FAD     0 **** FAD A 358
