@<TRIPOS>MOLECULE
1pox_TPP_1_ligand
   42    43     1     0     0
SMALL
NO_CHARGES


@<TRIPOS>ATOM
     1 N1'         16.7500    67.4650    -1.7200 N.ar         1 TPP611   0.0000
     2 C2'         16.5610    67.8060    -0.4470 C.ar         1 TPP611   0.0000
     3 CM2         16.6420    69.2680    -0.0240 C.3          1 TPP611   0.0000
     4 N3'         16.3080    66.8870     0.4850 N.ar         1 TPP611   0.0000
     5 C4'         16.2330    65.5730     0.1710 C.ar         1 TPP611   0.0000
     6 N4'         15.9500    64.6960     1.1550 N.pl3        1 TPP611   0.0000
     7 C5'         16.5170    65.1800    -1.1550 C.ar         1 TPP611   0.0000
     8 C6'         16.7400    66.1800    -2.1070 C.ar         1 TPP611   0.0000
     9 C7'         16.6050    63.7080    -1.6010 C.3          1 TPP611   0.0000
    10 N3          17.8010    63.0600    -1.0180 N.2          1 TPP611   1.0000
    11 C2          17.6720    62.3150     0.0500 C.2          1 TPP611   0.0000
    12 S1          19.2050    61.6030     0.5360 S.3          1 TPP611   0.0000
    13 C5          19.9660    62.4690    -0.7920 C.2          1 TPP611   0.0000
    14 C4          19.0500    63.1490    -1.4970 C.2          1 TPP611   0.0000
    15 CM4         19.4180    63.9360    -2.7310 C.3          1 TPP611   0.0000
    16 C6          21.4420    62.4020    -1.0750 C.3          1 TPP611   0.0000
    17 C7          22.2990    62.6290     0.1630 C.3          1 TPP611   0.0000
    18 O7          23.6860    62.9750    -0.3490 O.3          1 TPP611   0.0000
    19 PA          24.9110    63.1930     0.5610 P.3          1 TPP611   0.0000
    20 O1A         26.0960    63.3350    -0.2890 O.co2        1 TPP611   0.0000
    21 O2A         24.6350    64.2600     1.5010 O.co2        1 TPP611  -1.0000
    22 O3A         25.0570    61.8070     1.3430 O.3          1 TPP611   0.0000
    23 PB          25.6280    60.3400     1.0160 P.3          1 TPP611   0.0000
    24 O1B         24.4690    59.4910     0.8600 O.co2        1 TPP611   0.0000
    25 O2B         26.3890    60.0790     2.2310 O.co2        1 TPP611  -1.0000
    26 O3B         26.4970    60.5130    -0.1840 O.co2        1 TPP611  -1.0000
    27 HM21        16.4756    69.3402     0.9594 H            1 TPP611   0.0000
    28 HM22        17.5514    69.6263    -0.2354 H            1 TPP611   0.0000
    29 HM23        15.9522    69.7968    -0.5185 H            1 TPP611   0.0000
    30 H4'1        15.8884    63.7189     0.9514 H            1 TPP611   0.0000
    31 H4'2        15.8017    65.0226     2.0885 H            1 TPP611   0.0000
    32 H6'         16.8904    65.9400    -3.0661 H            1 TPP611   0.0000
    33 H7'1        16.6632    63.6694    -2.5986 H            1 TPP611   0.0000
    34 H7'2        15.7859    63.2222    -1.2958 H            1 TPP611   0.0000
    35 H9          16.8076    62.1684     0.5310 H            1 TPP611   0.0000
    36 HM41        20.4013    63.8579    -2.8952 H            1 TPP611   0.0000
    37 HM42        18.9188    63.5742    -3.5183 H            1 TPP611   0.0000
    38 HM43        19.1778    64.8974    -2.5971 H            1 TPP611   0.0000
    39 H13         21.6684    63.1027    -1.7515 H            1 TPP611   0.0000
    40 H14         21.6539    61.4984    -1.4473 H            1 TPP611   0.0000
    41 H15         22.3310    61.7996     0.7208 H            1 TPP611   0.0000
    42 H16         21.9311    63.3829     0.7073 H            1 TPP611   0.0000
@<TRIPOS>BOND
     1    1    2      ar
     2    1    8      ar
     3    2    3       1
     4    2    4      ar
     5    4    5      ar
     6    5    6       1
     7    5    7      ar
     8    7    8      ar
     9    7    9       1
    10    9   10       1
    11   10   11       2
    12   10   14       1
    13   11   12       1
    14   12   13       1
    15   13   14       2
    16   13   16       1
    17   14   15       1
    18   16   17       1
    19   17   18       1
    20   18   19       1
    21   19   20      ar
    22   19   21      ar
    23   19   22       1
    24   22   23       1
    25   23   24      ar
    26   23   25      ar
    27   23   26      ar
    28    3   27       1
    29    3   28       1
    30    3   29       1
    31    6   30       1
    32    6   31       1
    33    8   32       1
    34    9   33       1
    35    9   34       1
    36   11   35       1
    37   15   36       1
    38   15   37       1
    39   15   38       1
    40   16   39       1
    41   16   40       1
    42   17   41       1
    43   17   42       1
@<TRIPOS>SUBSTRUCTURE
     1 TPP611      1 GROUP             4 A     TPP     0 **** TPP A 611
