@<TRIPOS>MOLECULE
3eth_ATP_2_ligand
   43    45     1     0     0
SMALL
NO_CHARGES


@<TRIPOS>ATOM
     1 PG         -23.9150    -7.1670    65.4330 P.3          1 ATP400   0.0000
     2 O1G        -24.3840    -5.7190    65.6530 O.co2        1 ATP400   0.0000
     3 O2G        -22.9230    -7.7890    66.5270 O.co2        1 ATP400  -1.0000
     4 O3G        -23.3410    -7.4390    64.0820 O.co2        1 ATP400  -1.0000
     5 PB         -25.6930    -9.0070    66.6320 P.3          1 ATP400   0.0000
     6 O1B        -25.6370   -10.3920    65.9940 O.co2        1 ATP400   0.0000
     7 O2B        -25.0910    -8.7600    67.9790 O.co2        1 ATP400  -1.0000
     8 O3B        -25.3040    -7.9840    65.5170 O.3          1 ATP400   0.0000
     9 PA         -28.0130    -7.5080    67.5590 P.3          1 ATP400   0.0000
    10 O1A        -28.4140    -7.9640    68.9330 O.co2        1 ATP400   0.0000
    11 O2A        -27.2020    -6.2450    67.5210 O.co2        1 ATP400  -1.0000
    12 O3A        -27.2510    -8.6910    66.8200 O.3          1 ATP400   0.0000
    13 O5'        -29.2400    -7.4630    66.5500 O.3          1 ATP400   0.0000
    14 C5'        -28.9880    -6.9100    65.2430 C.3          1 ATP400   0.0000
    15 C4'        -30.3100    -6.1710    65.0030 C.3          1 ATP400   0.0000
    16 O4'        -31.5490    -6.9350    65.2180 O.3          1 ATP400   0.0000
    17 C3'        -30.5630    -4.8980    65.8230 C.3          1 ATP400   0.0000
    18 O3'        -29.6820    -3.8480    65.3580 O.3          1 ATP400   0.0000
    19 C2'        -32.0400    -4.7110    65.4430 C.3          1 ATP400   0.0000
    20 O2'        -32.2480    -4.3100    64.0640 O.3          1 ATP400   0.0000
    21 C1'        -32.5830    -6.1170    65.6400 C.3          1 ATP400   0.0000
    22 N9         -32.9080    -6.4610    67.0260 N.pl3        1 ATP400   0.0000
    23 C8         -32.0620    -7.0170    67.9400 C.2          1 ATP400   0.0000
    24 N7         -32.6830    -7.1760    69.1290 N.2          1 ATP400   0.0000
    25 C5         -33.9810    -6.6970    68.9680 C.ar         1 ATP400   0.0000
    26 C6         -35.0720    -6.6090    69.8770 C.ar         1 ATP400   0.0000
    27 N6         -35.1230    -7.0290    71.0760 N.pl3        1 ATP400   0.0000
    28 N1         -36.1810    -6.0530    69.2910 N.ar         1 ATP400   0.0000
    29 C2         -36.2930    -5.6530    67.9890 C.ar         1 ATP400   0.0000
    30 N3         -35.2800    -5.7240    67.1610 N.ar         1 ATP400   0.0000
    31 C4         -34.1430    -6.2680    67.6640 C.ar         1 ATP400   0.0000
    32 H5'1       -28.8343    -7.6253    64.5613 H            1 ATP400   0.0000
    33 H5'2       -28.2090    -6.2831    65.2498 H            1 ATP400   0.0000
    34 H4'        -30.3102    -5.8944    64.0420 H            1 ATP400   0.0000
    35 H3'        -30.4532    -5.0635    66.8031 H            1 ATP400   0.0000
    36 H5         -30.1216    -2.9600    65.4927 H            1 ATP400   0.0000
    37 H2'        -32.4862    -4.0701    66.0676 H            1 ATP400   0.0000
    38 H7         -32.2470    -3.3118    64.0033 H            1 ATP400   0.0000
    39 H1'        -33.3847    -6.2559    65.0587 H            1 ATP400   0.0000
    40 H9         -31.1128    -7.2718    67.7554 H            1 ATP400   0.0000
    41 H10        -35.9565    -6.9045    71.6144 H            1 ATP400   0.0000
    42 H11        -34.3296    -7.4838    71.4807 H            1 ATP400   0.0000
    43 H12        -37.1683    -5.2979    67.6607 H            1 ATP400   0.0000
@<TRIPOS>BOND
     1    1    2      ar
     2    1    3      ar
     3    1    4      ar
     4    1    8       1
     5    5    6      ar
     6    5    7      ar
     7    5    8       1
     8    5   12       1
     9    9   10      ar
    10    9   11      ar
    11    9   12       1
    12    9   13       1
    13   13   14       1
    14   14   15       1
    15   15   16       1
    16   15   17       1
    17   16   21       1
    18   17   18       1
    19   17   19       1
    20   19   20       1
    21   19   21       1
    22   21   22       1
    23   22   23       1
    24   22   31       1
    25   23   24       2
    26   24   25       1
    27   25   26      ar
    28   25   31      ar
    29   26   27       1
    30   26   28      ar
    31   28   29      ar
    32   29   30      ar
    33   30   31      ar
    34   29   43       1
    35   27   42       1
    36   27   41       1
    37   23   40       1
    38   14   32       1
    39   14   33       1
    40   15   34       1
    41   17   35       1
    42   18   36       1
    43   19   37       1
    44   20   38       1
    45   21   39       1
@<TRIPOS>SUBSTRUCTURE
     1 ATP400      1 GROUP             4 B     ATP     0 **** ATP B 400
