@<TRIPOS>MOLECULE
2bri_ANP_2_ligand
   44    46     1     0     0
SMALL
NO_CHARGES


@<TRIPOS>ATOM
     1 PG          83.5980   123.0830    46.3400 P.3          1 ANP1226   0.0000
     2 O1G         85.0650   122.9210    46.3080 O.co2        1 ANP1226   0.0000
     3 O2G         82.8990   123.0200    47.6670 O.co2        1 ANP1226  -1.0000
     4 O3G         82.9340   122.0210    45.3740 O.co2        1 ANP1226  -1.0000
     5 PB          83.2530   126.0070    46.5630 P.3          1 ANP1226   0.0000
     6 O1B         84.2740   125.8740    47.6290 O.co2        1 ANP1226   0.0000
     7 O2B         83.5010   126.9350    45.4750 O.co2        1 ANP1226  -1.0000
     8 N3B         83.0160   124.5850    46.0120 N.3          1 ANP1226   0.0000
     9 PA          81.6510   127.1700    48.7120 P.3          1 ANP1226   0.0000
    10 O1A         80.1640   126.9600    48.7660 O.co2        1 ANP1226   0.0000
    11 O2A         82.1740   126.4120    49.8400 O.co2        1 ANP1226  -1.0000
    12 O3A         81.9590   126.6750    47.2140 O.3          1 ANP1226   0.0000
    13 O5'         82.0310   128.7520    48.8440 O.3          1 ANP1226   0.0000
    14 C5'         81.3370   129.9270    48.9810 C.3          1 ANP1226   0.0000
    15 C4'         80.2480   130.2570    49.6760 C.3          1 ANP1226   0.0000
    16 O4'         80.9140   130.8470    50.7030 O.3          1 ANP1226   0.0000
    17 C3'         79.3110   131.3670    49.1080 C.3          1 ANP1226   0.0000
    18 O3'         78.4300   131.1380    48.0710 O.3          1 ANP1226   0.0000
    19 C2'         78.8170   131.9120    50.5360 C.3          1 ANP1226   0.0000
    20 O2'         77.4870   131.1800    50.8300 O.3          1 ANP1226   0.0000
    21 C1'         79.9280   131.5300    51.5200 C.3          1 ANP1226   0.0000
    22 N9          80.5300   132.6150    52.3150 N.pl3        1 ANP1226   0.0000
    23 C8          80.5610   132.8780    53.6170 C.2          1 ANP1226   0.0000
    24 N7          81.1660   133.9000    54.0740 N.2          1 ANP1226   0.0000
    25 C5          81.6170   134.4060    52.9470 C.ar         1 ANP1226   0.0000
    26 C6          82.4010   135.5870    52.7370 C.ar         1 ANP1226   0.0000
    27 N6          82.7360   136.2730    53.8230 N.pl3        1 ANP1226   0.0000
    28 N1          82.7690   135.9430    51.4450 N.ar         1 ANP1226   0.0000
    29 C2          82.4120   135.2090    50.3090 C.ar         1 ANP1226   0.0000
    30 N3          81.6390   134.0370    50.4710 N.ar         1 ANP1226   0.0000
    31 C4          81.3020   133.7300    51.7740 C.ar         1 ANP1226   0.0000
    32 H3B         82.0302   124.4671    46.1313 H            1 ANP1226   0.0000
    33 H5'1        81.0921   130.1627    48.0405 H            1 ANP1226   0.0000
    34 H5'2        82.0285   130.5671    49.3158 H            1 ANP1226   0.0000
    35 H4'         79.7362   129.4516    49.9750 H            1 ANP1226   0.0000
    36 H3'         79.9304   132.0734    48.7655 H            1 ANP1226   0.0000
    37 H6          77.5508   130.8376    48.4408 H            1 ANP1226   0.0000
    38 H2'         78.6831   132.9028    50.5143 H            1 ANP1226   0.0000
    39 H8          77.1290   131.4813    51.7137 H            1 ANP1226   0.0000
    40 H1'         79.5490   130.8609    52.1593 H            1 ANP1226   0.0000
    41 H10         80.0986   132.2591    54.2519 H            1 ANP1226   0.0000
    42 H11         83.2827   137.1062    53.7393 H            1 ANP1226   0.0000
    43 H12         82.4417   135.9566    54.7248 H            1 ANP1226   0.0000
    44 H13         82.6985   135.5081    49.3988 H            1 ANP1226   0.0000
@<TRIPOS>BOND
     1    1    2      ar
     2    1    3      ar
     3    1    4      ar
     4    1    8       1
     5    5    6      ar
     6    5    7      ar
     7    5    8       1
     8    5   12       1
     9    9   10      ar
    10    9   11      ar
    11    9   12       1
    12    9   13       1
    13   13   14       1
    14   14   15       1
    15   15   16       1
    16   15   17       1
    17   16   21       1
    18   17   18       1
    19   17   19       1
    20   19   20       1
    21   19   21       1
    22   21   22       1
    23   22   23       1
    24   22   31       1
    25   23   24       2
    26   24   25       1
    27   25   26      ar
    28   25   31      ar
    29   26   27       1
    30   26   28      ar
    31   28   29      ar
    32   29   30      ar
    33   30   31      ar
    34   29   44       1
    35   27   43       1
    36   27   42       1
    37    8   32       1
    38   23   41       1
    39   14   33       1
    40   14   34       1
    41   15   35       1
    42   17   36       1
    43   18   37       1
    44   19   38       1
    45   20   39       1
    46   21   40       1
@<TRIPOS>SUBSTRUCTURE
     1 ANP1226     1 GROUP             4 B     ANP     0 **** ANP B1226
