@<TRIPOS>MOLECULE
3duf_R1T_4_ligand
   50    51     1     0     0
SMALL
NO_CHARGES


@<TRIPOS>ATOM
     1 N1'         -5.9000   -41.0210   -14.8180 N.ar         1 R1T1370   1.0000
     2 C2'         -6.8830   -41.8630   -15.0450 C.ar         1 R1T1370   0.0000
     3 CM2         -6.6270   -43.1260   -15.4580 C.3          1 R1T1370   0.0000
     4 N3'         -8.1230   -41.5140   -14.8970 N.ar         1 R1T1370   0.0000
     5 C4'         -8.4010   -40.3000   -14.5090 C.ar         1 R1T1370   0.0000
     6 N4'         -9.6500   -39.9820   -14.3660 N.pl3        1 R1T1370   0.0000
     7 C5'         -7.4320   -39.3520   -14.2460 C.ar         1 R1T1370   0.0000
     8 C6'         -6.1330   -39.7440   -14.4020 C.ar         1 R1T1370   0.0000
     9 C7'         -7.7090   -38.0510   -13.8550 C.3          1 R1T1370   0.0000
    10 C3          -8.2560   -37.1940   -15.0060 C.2          1 R1T1370   0.0000
    11 C2          -9.4430   -36.6730   -15.0520 C.2          1 R1T1370   0.0000
    12 S1          -9.5870   -35.9770   -16.2680 S.3          1 R1T1370   0.0000
    13 C5          -8.4180   -36.1290   -16.8830 C.2          1 R1T1370   0.0000
    14 C4          -7.6370   -36.8540   -16.1060 C.2          1 R1T1370   0.0000
    15 CM4         -6.2150   -37.2630   -16.4600 C.3          1 R1T1370   0.0000
    16 C6          -8.0070   -35.4970   -18.2390 C.3          1 R1T1370   0.0000
    17 C7          -8.3320   -36.2100   -19.5420 C.3          1 R1T1370   0.0000
    18 O7          -7.9650   -35.4040   -20.6360 O.3          1 R1T1370   0.0000
    19 PA          -8.7630   -35.4370   -21.8230 P.3          1 R1T1370   0.0000
    20 O1A         -8.3170   -34.4510   -22.7360 O.co2        1 R1T1370   0.0000
    21 O2A         -8.7950   -36.7170   -22.2680 O.co2        1 R1T1370  -1.0000
    22 O3A        -10.1690   -35.1110   -21.3530 O.3          1 R1T1370   0.0000
    23 PB         -11.0750   -33.8880   -21.6200 P.3          1 R1T1370   0.0000
    24 O1B        -11.2110   -33.5050   -20.3200 O.co2        1 R1T1370   0.0000
    25 O2B        -12.1760   -34.5220   -22.2030 O.co2        1 R1T1370  -1.0000
    26 O3B        -10.1900   -33.1570   -22.4440 O.co2        1 R1T1370  -1.0000
    27 CP1        -10.4560   -36.7860   -13.9040 C.3          1 R1T1370   0.0000
    28 CP2        -11.9070   -36.8060   -14.3160 C.3          1 R1T1370   0.0000
    29 OP1        -10.1800   -37.8900   -13.1130 O.3          1 R1T1370   0.0000
    30 HM21        -7.4890   -43.6184   -15.5787 H            1 R1T1370   0.0000
    31 HM22        -6.1340   -43.0989   -16.3276 H            1 R1T1370   0.0000
    32 HM23        -6.0689   -43.5941   -14.7729 H            1 R1T1370   0.0000
    33 H4'1        -9.9005   -39.0603   -14.0700 H            1 R1T1370   0.0000
    34 H4'2       -10.3626   -40.6585   -14.5517 H            1 R1T1370   0.0000
    35 H6'         -5.3779   -39.1150   -14.2172 H            1 R1T1370   0.0000
    36 H7'1        -6.8668   -37.6321   -13.5156 H            1 R1T1370   0.0000
    37 H7'2        -8.3886   -38.0744   -13.1218 H            1 R1T1370   0.0000
    38 HM41        -5.9697   -36.8794   -17.3503 H            1 R1T1370   0.0000
    39 HM42        -5.5858   -36.9180   -15.7636 H            1 R1T1370   0.0000
    40 HM43        -6.1549   -38.2604   -16.4988 H            1 R1T1370   0.0000
    41 H12         -7.0141   -35.3809   -18.2138 H            1 R1T1370   0.0000
    42 H13         -8.4465   -34.5999   -18.2839 H            1 R1T1370   0.0000
    43 H14         -9.3138   -36.3956   -19.5820 H            1 R1T1370   0.0000
    44 H15         -7.8277   -37.0726   -19.5822 H            1 R1T1370   0.0000
    45 HP1        -10.3305   -35.9787   -13.3273 H            1 R1T1370   0.0000
    46 HP21       -12.4835   -36.8814   -13.5024 H            1 R1T1370   0.0000
    47 HP22       -12.1269   -35.9608   -14.8032 H            1 R1T1370   0.0000
    48 HP23       -12.0725   -37.5891   -14.9155 H            1 R1T1370   0.0000
    49 H20        -10.8499   -37.9454   -12.3726 H            1 R1T1370   0.0000
    50 H1'         -4.9570   -41.3248   -14.9539 H            1 R1T1370   0.0000
@<TRIPOS>BOND
     1    1    2      ar
     2    1    8      ar
     3    2    3       1
     4    2    4      ar
     5    4    5      ar
     6    5    6       1
     7    5    7      ar
     8    7    8      ar
     9    7    9       1
    10    9   10       1
    11   10   11       2
    12   27   29       1
    13   10   14       1
    14   11   12       1
    15   11   27       1
    16   12   13       1
    17   27   28       1
    18   13   14       2
    19   13   16       1
    20   14   15       1
    21   16   17       1
    22   17   18       1
    23   18   19       1
    24   19   20      ar
    25   19   21      ar
    26   19   22       1
    27   22   23       1
    28   23   24      ar
    29   23   25      ar
    30   23   26      ar
    31    3   30       1
    32    3   31       1
    33    3   32       1
    34    6   33       1
    35    6   34       1
    36    8   35       1
    37    9   36       1
    38    9   37       1
    39   15   38       1
    40   15   39       1
    41   15   40       1
    42   16   41       1
    43   16   42       1
    44   17   43       1
    45   17   44       1
    46   29   49       1
    47   28   48       1
    48   28   47       1
    49   27   45       1
    50   28   46       1
    51    1   50       1
@<TRIPOS>SUBSTRUCTURE
     1 R1T1370     1 GROUP             4 G     R1T     0 **** R1T G1370
