@<TRIPOS>MOLECULE
2fle_AI_1_ligand
  122   125     1     0     0
SMALL
NO_CHARGES


@<TRIPOS>ATOM
     1 C4          26.6460   -32.2260    10.5960 C.ar         1 AI845    0.0000
     2 C14         22.5980   -36.7410    13.0280 C.3          1 AI845    0.0000
     3 C5          27.9860   -32.0350    11.0440 C.ar         1 AI845    0.0000
     4 C6          29.0350   -32.8220    10.4620 C.ar         1 AI845    0.0000
     5 C11         22.7180   -38.6110     7.0250 C.3          1 AI845    0.0000
     6 C7          28.7760   -33.7980     9.4420 C.ar         1 AI845    0.0000
     7 C8          27.4050   -37.3510     8.7640 C.3          1 AI845    0.0000
     8 C9          23.1580   -37.6740     9.4010 C.3          1 AI845    0.0000
     9 C10         22.5430   -38.8380     8.5440 C.3          1 AI845    0.0000
    10 C12         21.0180   -39.0040     8.7980 C.3          1 AI845    0.0000
    11 C13         23.0200   -37.8300    10.9150 C.2          1 AI845    0.0000
    12 N1          26.4900   -36.2290     8.4680 N.am         1 AI845    0.0000
    13 N2          26.3870   -33.1950     9.5830 N.ar         1 AI845    0.0000
    14 C3          27.4300   -33.9800     9.0030 C.ar         1 AI845    0.0000
    15 N3          24.6100   -37.5010     9.1640 N.am         1 AI845    0.0000
    16 O1          24.3640   -35.3750     8.4180 O.2          1 AI845    0.0000
    17 C1          25.1290   -36.3320     8.6740 C.2          1 AI845    0.0000
    18 C2          27.1120   -34.9940     7.9340 C.3          1 AI845    0.0000
    19 O2          23.1350   -38.9560    11.4480 O.2          1 AI845    0.0000
    20 N4          22.7640   -36.6850    11.5810 N.am         1 AI845    0.0000
    21 C15         23.6460   -35.8020    13.7480 C.3          1 AI845    0.0000
    22 C16         25.0980   -36.1750    13.5110 C.ar         1 AI845    0.0000
    23 C17         25.6930   -37.2690    14.2360 C.ar         1 AI845    0.0000
    24 C18         27.0650   -37.6130    14.0050 C.ar         1 AI845    0.0000
    25 C19         27.8410   -36.8720    13.0560 C.ar         1 AI845    0.0000
    26 C20         27.2430   -35.7830    12.3370 C.ar         1 AI845    0.0000
    27 C21         25.8710   -35.4250    12.5550 C.ar         1 AI845    0.0000
    28 C22         21.0980   -36.3510    13.2820 C.3          1 AI845    0.0000
    29 O3          20.9210   -35.0100    12.7830 O.3          1 AI845    0.0000
    30 C23         20.6710   -36.3850    14.7740 C.3          1 AI845    0.0000
    31 O4          19.5040   -35.5870    15.0050 O.3          1 AI845    0.0000
    32 C24         20.3730   -37.8750    15.1570 C.3          1 AI845    0.0000
    33 C25         18.9910   -38.3550    14.6570 C.3          1 AI845    0.0000
    34 C26         18.6500   -39.8040    14.9960 C.3          1 AI845    0.0000
    35 C27         17.1010   -40.0490    15.0460 C.3          1 AI845    0.0000
    36 C28         16.6900   -41.5640    15.1860 C.3          1 AI845    0.0000
    37 C29         17.9080   -42.4910    15.4950 C.3          1 AI845    0.0000
    38 C30         19.0530   -42.3090    14.4320 C.3          1 AI845    0.0000
    39 C31         19.3060   -40.8150    13.9970 C.3          1 AI845    0.0000
    40 N5          20.4550   -38.0170    16.6170 N.am         1 AI845    0.0000
    41 C32         21.3360   -38.8630    17.1880 C.2          1 AI845    0.0000
    42 O5          22.1470   -39.5930    16.5880 O.2          1 AI845    0.0000
    43 C33         21.2690   -38.8820    18.7300 C.3          1 AI845    0.0000
    44 C34         22.6500   -39.0380    19.4580 C.3          1 AI845    0.0000
    45 C35         22.4840   -39.0520    20.9710 C.3          1 AI845    0.0000
    46 C36         23.5900   -37.8730    19.1300 C.3          1 AI845    0.0000
    47 N6          20.3440   -39.9970    19.0340 N.am         1 AI845    0.0000
    48 C37         19.1000   -39.8260    19.5670 C.2          1 AI845    0.0000
    49 O6          18.6820   -38.6790    19.8270 O.2          1 AI845    0.0000
    50 N7          18.3180   -40.9430    19.8090 N.am         1 AI845    0.0000
    51 C38         18.7780   -42.3160    19.5140 C.3          1 AI845    0.0000
    52 C39         16.9550   -40.8290    20.3920 C.3          1 AI845    0.0000
    53 C40         15.9120   -40.5020    19.3470 C.ar         1 AI845    0.0000
    54 C41         15.0520   -41.5320    18.8600 C.ar         1 AI845    0.0000
    55 N8          15.7860   -39.1700    18.8490 N.ar         1 AI845    0.0000
    56 C42         14.8150   -38.8220    17.8660 C.ar         1 AI845    0.0000
    57 C43         13.9470   -39.8340    17.3660 C.ar         1 AI845    0.0000
    58 C44         14.0720   -41.1770    17.8670 C.ar         1 AI845    0.0000
    59 H1          25.8989   -31.6882    10.9866 H            1 AI845    0.0000
    60 H2          22.7435   -37.6819    13.3338 H            1 AI845    0.0000
    61 H3          28.1919   -31.3617    11.7541 H            1 AI845    0.0000
    62 H4          29.9746   -32.6865    10.7764 H            1 AI845    0.0000
    63 H5          22.3119   -39.3757     6.5247 H            1 AI845    0.0000
    64 H6          22.2632   -37.7606     6.7605 H            1 AI845    0.0000
    65 H7          23.6921   -38.5498     6.8071 H            1 AI845    0.0000
    66 H8          29.5204   -34.3374     9.0484 H            1 AI845    0.0000
    67 H9          28.3437   -37.0811     8.5494 H            1 AI845    0.0000
    68 H10         27.3395   -37.5877     9.7334 H            1 AI845    0.0000
    69 H11         27.1510   -38.1435     8.2095 H            1 AI845    0.0000
    70 H12         22.7009   -36.8246     9.1373 H            1 AI845    0.0000
    71 H13         23.0011   -39.6915     8.7924 H            1 AI845    0.0000
    72 H14         20.8569   -39.1539     9.7735 H            1 AI845    0.0000
    73 H15         20.5392   -38.1766     8.5044 H            1 AI845    0.0000
    74 H16         20.6771   -39.7882     8.2795 H            1 AI845    0.0000
    75 H17         25.2291   -38.2595     9.3676 H            1 AI845    0.0000
    76 H18         26.4814   -34.5781     7.2788 H            1 AI845    0.0000
    77 H19         27.9614   -35.2417     7.4680 H            1 AI845    0.0000
    78 H20         22.6897   -35.8159    11.0920 H            1 AI845    0.0000
    79 H21         23.4717   -35.8374    14.7321 H            1 AI845    0.0000
    80 H22         23.5062   -34.8684    13.4181 H            1 AI845    0.0000
    81 H23         25.1506   -37.7863    14.8979 H            1 AI845    0.0000
    82 H24         27.4811   -38.3712    14.5069 H            1 AI845    0.0000
    83 H25         28.7980   -37.1130    12.8946 H            1 AI845    0.0000
    84 H26         27.7892   -35.2679    11.6764 H            1 AI845    0.0000
    85 H27         25.4578   -34.6665    12.0510 H            1 AI845    0.0000
    86 H28         20.5096   -36.9705    12.7623 H            1 AI845    0.0000
    87 H29         19.9739   -34.7231    12.9268 H            1 AI845    0.0000
    88 H30         21.4215   -36.0430    15.3396 H            1 AI845    0.0000
    89 H31         18.9384   -35.5770    14.1804 H            1 AI845    0.0000
    90 H32         21.0763   -38.4536    14.7438 H            1 AI845    0.0000
    91 H33         18.9694   -38.2558    13.6622 H            1 AI845    0.0000
    92 H34         18.2922   -37.7680    15.0658 H            1 AI845    0.0000
    93 H35         19.0167   -39.9965    15.9062 H            1 AI845    0.0000
    94 H36         16.6998   -39.6920    14.2025 H            1 AI845    0.0000
    95 H37         16.7298   -39.5498    15.8290 H            1 AI845    0.0000
    96 H38         16.2699   -41.8623    14.3290 H            1 AI845    0.0000
    97 H39         16.0266   -41.6484    15.9295 H            1 AI845    0.0000
    98 H40         17.6029   -43.4433    15.4845 H            1 AI845    0.0000
    99 H41         18.2665   -42.2658    16.4010 H            1 AI845    0.0000
   100 H42         18.8098   -42.8351    13.6171 H            1 AI845    0.0000
   101 H43         19.9009   -42.6695    14.8207 H            1 AI845    0.0000
   102 H44         20.2916   -40.6483    13.9672 H            1 AI845    0.0000
   103 H45         18.9160   -40.6715    13.0874 H            1 AI845    0.0000
   104 H46         19.8464   -37.4764    17.1978 H            1 AI845    0.0000
   105 H47         20.8459   -38.0295    19.0371 H            1 AI845    0.0000
   106 H48         23.0774   -39.8944    19.1682 H            1 AI845    0.0000
   107 H49         23.3799   -39.1524    21.4037 H            1 AI845    0.0000
   108 H50         22.0645   -38.1943    21.2683 H            1 AI845    0.0000
   109 H51         21.8985   -39.8185    21.2350 H            1 AI845    0.0000
   110 H52         24.4591   -38.0013    19.6077 H            1 AI845    0.0000
   111 H53         23.7528   -37.8436    18.1438 H            1 AI845    0.0000
   112 H54         23.1714   -37.0139    19.4245 H            1 AI845    0.0000
   113 H55         20.6485   -40.9290    18.8374 H            1 AI845    0.0000
   114 H56         18.0621   -42.9682    19.7634 H            1 AI845    0.0000
   115 H57         18.9782   -42.3979    18.5377 H            1 AI845    0.0000
   116 H58         19.6050   -42.5110    20.0413 H            1 AI845    0.0000
   117 H59         16.9590   -40.1041    21.0808 H            1 AI845    0.0000
   118 H60         16.7160   -41.6984    20.8245 H            1 AI845    0.0000
   119 H61         15.1279   -42.4702    19.1978 H            1 AI845    0.0000
   120 H62         14.7442   -37.8819    17.5325 H            1 AI845    0.0000
   121 H63         13.2587   -39.6139    16.6748 H            1 AI845    0.0000
   122 H64         13.4598   -41.8850    17.5149 H            1 AI845    0.0000
@<TRIPOS>BOND
     1    1    3      ar
     2    1   13      ar
     3    2   20       1
     4    2   21       1
     5    2   28       1
     6    3    4      ar
     7    4    6      ar
     8    5    9       1
     9    6   14      ar
    10    7   12       1
    11    8    9       1
    12    8   11       1
    13    8   15       1
    14    9   10       1
    15   11   19       2
    16   11   20      am
    17   12   17      am
    18   12   18       1
    19   13   14      ar
    20   14   18       1
    21   15   17      am
    22   16   17       2
    23   21   22       1
    24   22   23      ar
    25   22   27      ar
    26   23   24      ar
    27   24   25      ar
    28   25   26      ar
    29   26   27      ar
    30   28   29       1
    31   28   30       1
    32   30   31       1
    33   30   32       1
    34   32   33       1
    35   32   40       1
    36   33   34       1
    37   34   35       1
    38   34   39       1
    39   35   36       1
    40   36   37       1
    41   37   38       1
    42   38   39       1
    43   40   41      am
    44   41   42       2
    45   41   43       1
    46   43   44       1
    47   43   47       1
    48   44   45       1
    49   44   46       1
    50   47   48      am
    51   48   49       2
    52   48   50      am
    53   50   51       1
    54   50   52       1
    55   52   53       1
    56   53   54      ar
    57   53   55      ar
    58   54   58      ar
    59   55   56      ar
    60   56   57      ar
    61   57   58      ar
    62    1   59       1
    63    2   60       1
    64    3   61       1
    65    4   62       1
    66    5   63       1
    67    5   64       1
    68    5   65       1
    69    6   66       1
    70    7   67       1
    71    7   68       1
    72    7   69       1
    73    8   70       1
    74    9   71       1
    75   10   72       1
    76   10   73       1
    77   10   74       1
    78   15   75       1
    79   18   76       1
    80   18   77       1
    81   20   78       1
    82   21   79       1
    83   21   80       1
    84   23   81       1
    85   24   82       1
    86   25   83       1
    87   26   84       1
    88   27   85       1
    89   28   86       1
    90   29   87       1
    91   30   88       1
    92   31   89       1
    93   32   90       1
    94   33   91       1
    95   33   92       1
    96   34   93       1
    97   35   94       1
    98   35   95       1
    99   36   96       1
   100   36   97       1
   101   37   98       1
   102   37   99       1
   103   38  100       1
   104   38  101       1
   105   39  102       1
   106   39  103       1
   107   40  104       1
   108   43  105       1
   109   44  106       1
   110   45  107       1
   111   45  108       1
   112   45  109       1
   113   46  110       1
   114   46  111       1
   115   46  112       1
   116   47  113       1
   117   51  114       1
   118   51  115       1
   119   51  116       1
   120   52  117       1
   121   52  118       1
   122   54  119       1
   123   56  120       1
   124   57  121       1
   125   58  122       1
@<TRIPOS>SUBSTRUCTURE
     1 AI845       1 GROUP             4 B      AI     0 ****  AI B 845
