@<TRIPOS>MOLECULE
2zdy_ADP_2_ligand
   39    41     1     0     0
SMALL
NO_CHARGES


@<TRIPOS>ATOM
     1 PB         -57.2510     2.9320    26.3170 P.3          1 ADP1501   0.0000
     2 O1B        -58.5980     2.3680    26.3450 O.co2        1 ADP1501   0.0000
     3 O2B        -56.7830     3.1710    27.7110 O.co2        1 ADP1501  -1.0000
     4 O3B        -57.2030     4.3470    25.4360 O.co2        1 ADP1501  -1.0000
     5 PA         -54.9620     2.3920    24.5310 P.3          1 ADP1501   0.0000
     6 O1A        -55.5060     3.2870    23.5500 O.co2        1 ADP1501   0.0000
     7 O2A        -54.2290     1.1490    24.0570 O.co2        1 ADP1501  -1.0000
     8 O3A        -56.1740     2.0230    25.5230 O.3          1 ADP1501   0.0000
     9 O5'        -53.8890     3.2010    25.4350 O.3          1 ADP1501   0.0000
    10 C5'        -53.2620     2.5210    26.4440 C.3          1 ADP1501   0.0000
    11 C4'        -52.5500     3.0470    27.5910 C.3          1 ADP1501   0.0000
    12 O4'        -51.1790     3.5710    27.4760 O.3          1 ADP1501   0.0000
    13 C3'        -53.4830     4.0890    28.2690 C.3          1 ADP1501   0.0000
    14 O3'        -54.4440     3.4760    29.1450 O.3          1 ADP1501   0.0000
    15 C2'        -52.4730     5.0450    28.8900 C.3          1 ADP1501   0.0000
    16 O2'        -52.3200     4.7680    30.2630 O.3          1 ADP1501   0.0000
    17 C1'        -51.1650     4.8640    28.0750 C.3          1 ADP1501   0.0000
    18 N9         -50.9530     5.9100    26.9890 N.pl3        1 ADP1501   0.0000
    19 C8         -51.2090     5.9610    25.6080 C.2          1 ADP1501   0.0000
    20 N7         -50.8950     7.0260    25.0000 N.2          1 ADP1501   0.0000
    21 C5         -50.3820     7.7950    25.9760 C.ar         1 ADP1501   0.0000
    22 C6         -49.8100     9.1560    26.0500 C.ar         1 ADP1501   0.0000
    23 N6         -49.7280     9.9090    24.9470 N.pl3        1 ADP1501   0.0000
    24 N1         -49.3300     9.6920    27.3310 N.ar         1 ADP1501   0.0000
    25 C2         -49.4020     8.9260    28.5170 C.ar         1 ADP1501   0.0000
    26 N3         -49.9390     7.6220    28.5110 N.ar         1 ADP1501   0.0000
    27 C4         -50.3960     7.1260    27.2580 C.ar         1 ADP1501   0.0000
    28 H5'1       -52.5907     1.9456    25.9767 H            1 ADP1501   0.0000
    29 H5'2       -53.9780     1.9448    26.8383 H            1 ADP1501   0.0000
    30 H4'        -52.4894     2.2860    28.2369 H            1 ADP1501   0.0000
    31 H3'        -53.9794     4.5790    27.5524 H            1 ADP1501   0.0000
    32 H5         -55.2731     3.2582    28.6301 H            1 ADP1501   0.0000
    33 H2'        -52.8001     5.9836    28.7799 H            1 ADP1501   0.0000
    34 H7         -53.2001     4.8767    30.7251 H            1 ADP1501   0.0000
    35 H1'        -50.3922     4.9081    28.7081 H            1 ADP1501   0.0000
    36 H9         -51.6219     5.1883    25.1259 H            1 ADP1501   0.0000
    37 H10        -49.3409    10.8297    24.9977 H            1 ADP1501   0.0000
    38 H11        -50.0538     9.5511    24.0719 H            1 ADP1501   0.0000
    39 H12        -49.0664     9.3154    29.3748 H            1 ADP1501   0.0000
@<TRIPOS>BOND
     1    1    2      ar
     2    1    3      ar
     3    1    4      ar
     4    1    8       1
     5    5    6      ar
     6    5    7      ar
     7    5    8       1
     8    5    9       1
     9    9   10       1
    10   10   11       1
    11   11   12       1
    12   11   13       1
    13   12   17       1
    14   13   14       1
    15   13   15       1
    16   15   16       1
    17   15   17       1
    18   17   18       1
    19   18   19       1
    20   18   27       1
    21   19   20       2
    22   20   21       1
    23   21   22      ar
    24   21   27      ar
    25   22   23       1
    26   22   24      ar
    27   24   25      ar
    28   25   26      ar
    29   26   27      ar
    30   25   39       1
    31   23   38       1
    32   23   37       1
    33   10   28       1
    34   10   29       1
    35   11   30       1
    36   13   31       1
    37   14   32       1
    38   15   33       1
    39   16   34       1
    40   17   35       1
    41   19   36       1
@<TRIPOS>SUBSTRUCTURE
     1 ADP1501     1 GROUP             4 B     ADP     0 **** ADP B1501
