@<TRIPOS>MOLECULE
3o03_NAP_1_ligand
   73    77     1     0     0
SMALL
NO_CHARGES


@<TRIPOS>ATOM
     1 PA          11.7450    18.3730    13.5190 P.3          1 NAP273   0.0000
     2 O1A         12.9920    17.6100    13.2690 O.co2        1 NAP273   0.0000
     3 O2A         10.5280    18.3620    12.6560 O.co2        1 NAP273  -1.0000
     4 O5B         11.1300    17.1520    14.4440 O.3          1 NAP273   0.0000
     5 C5B          9.8480    17.3000    15.1360 C.3          1 NAP273   0.0000
     6 C4B          9.4270    16.0620    15.8840 C.3          1 NAP273   0.0000
     7 O4B          8.4870    15.3990    14.9710 O.3          1 NAP273   0.0000
     8 C3B         10.5740    15.0450    16.1540 C.3          1 NAP273   0.0000
     9 O3B         10.6000    14.6310    17.5390 O.3          1 NAP273   0.0000
    10 C2B         10.1920    13.8840    15.2180 C.3          1 NAP273   0.0000
    11 O2B         10.7480    12.6130    15.6050 O.3          1 NAP273   0.0000
    12 C1B          8.6560    13.9750    15.2240 C.3          1 NAP273   0.0000
    13 N9A          8.0400    13.1320    14.1340 N.pl3        1 NAP273   0.0000
    14 C8A          8.4950    13.0050    12.8790 C.2          1 NAP273   0.0000
    15 N7A          7.6880    12.1890    12.1750 N.2          1 NAP273   0.0000
    16 C5A          6.7270    11.7840    13.0090 C.ar         1 NAP273   0.0000
    17 C6A          5.6320    10.9390    12.8500 C.ar         1 NAP273   0.0000
    18 N6A          5.4180    10.3490    11.6660 N.pl3        1 NAP273   0.0000
    19 N1A          4.8240    10.7330    13.9140 N.ar         1 NAP273   0.0000
    20 C2A          5.0530    11.3150    15.0910 C.ar         1 NAP273   0.0000
    21 N3A          6.1010    12.1400    15.2800 N.ar         1 NAP273   0.0000
    22 C4A          6.9430    12.3850    14.2500 C.ar         1 NAP273   0.0000
    23 O3          11.6890    19.2770    14.9220 O.3          1 NAP273   0.0000
    24 PN          12.0220    20.9080    14.9870 P.3          1 NAP273   0.0000
    25 O1N         13.1410    21.2950    14.0900 O.co2        1 NAP273   0.0000
    26 O2N         12.1070    21.2550    16.4160 O.co2        1 NAP273  -1.0000
    27 O5D         10.6970    21.5730    14.2910 O.3          1 NAP273   0.0000
    28 C5D          9.3580    21.1130    14.5220 C.3          1 NAP273   0.0000
    29 C4D          8.3770    21.8280    13.5890 C.3          1 NAP273   0.0000
    30 O4D          8.8950    23.1700    13.2830 O.3          1 NAP273   0.0000
    31 C3D          8.2620    21.0520    12.2480 C.3          1 NAP273   0.0000
    32 O3D          6.9270    21.1410    11.7260 O.3          1 NAP273   0.0000
    33 C2D          9.2400    21.8130    11.3610 C.3          1 NAP273   0.0000
    34 O2D          8.9240    21.5770     9.9790 O.3          1 NAP273   0.0000
    35 C1D          8.9940    23.2660    11.8210 C.3          1 NAP273   0.0000
    36 N1N         10.0300    24.2970    11.5370 N.ar         1 NAP273   1.0000
    37 C2N         11.3510    24.1360    12.0060 C.ar         1 NAP273   0.0000
    38 C3N         12.3090    25.1180    11.7260 C.ar         1 NAP273   0.0000
    39 C7N         13.7250    24.9170    12.2740 C.2          1 NAP273   0.0000
    40 O7N         14.7638    25.6896    11.8378 O.2          1 NAP273   0.0000
    41 N7N         13.8821    23.9679    13.1929 N.am         1 NAP273   0.0000
    42 C4N         11.9710    26.2610    10.9750 C.ar         1 NAP273   0.0000
    43 C5N         10.6590    26.4130    10.4960 C.ar         1 NAP273   0.0000
    44 C6N          9.6840    25.4480    10.7750 C.ar         1 NAP273   0.0000
    45 P2B         12.2940    12.3140    14.9000 P.3          1 NAP273   0.0000
    46 O1X         12.3860    10.6850    14.6200 O.co2        1 NAP273   0.0000
    47 O2X         13.4620    12.7100    15.9880 O.co2        1 NAP273  -1.0000
    48 O3X         12.5200    13.0890    13.6100 O.co2        1 NAP273  -1.0000
    49 H5B1         9.1449    17.5157    14.4585 H            1 NAP273   0.0000
    50 H5B2         9.9248    18.0540    15.7883 H            1 NAP273   0.0000
    51 H4B          8.9697    16.3083    16.7385 H            1 NAP273   0.0000
    52 H3B         11.4562    15.4335    15.8880 H            1 NAP273   0.0000
    53 H5           9.7303    14.1967    17.7735 H            1 NAP273   0.0000
    54 H2B         10.5165    14.1022    14.2976 H            1 NAP273   0.0000
    55 H1B          8.2873    13.7255    16.1194 H            1 NAP273   0.0000
    56 H8A          9.3141    13.4512    12.5186 H            1 NAP273   0.0000
    57 H6A1         4.6334     9.7409    11.5449 H            1 NAP273   0.0000
    58 H6A2         6.0429    10.5168    10.9035 H            1 NAP273   0.0000
    59 H2A          4.4311    11.1347    15.8531 H            1 NAP273   0.0000
    60 H5D1         9.1050    21.2999    15.4712 H            1 NAP273   0.0000
    61 H5D2         9.3146    20.1283    14.3531 H            1 NAP273   0.0000
    62 H4D          7.4790    21.8976    14.0234 H            1 NAP273   0.0000
    63 H3D          8.5428    20.0986    12.3584 H            1 NAP273   0.0000
    64 H16          6.5150    22.0068    12.0101 H            1 NAP273   0.0000
    65 H2D         10.1807    21.5369    11.5581 H            1 NAP273   0.0000
    66 H18          9.1831    22.3762     9.4366 H            1 NAP273   0.0000
    67 H1D          8.1168    23.5780    11.4560 H            1 NAP273   0.0000
    68 H2N         11.6015    23.3254    12.5352 H            1 NAP273   0.0000
    69 H7N1        14.7833    23.8050    13.5945 H            1 NAP273   0.0000
    70 H7N2        13.0989    23.4174    13.4821 H            1 NAP273   0.0000
    71 H4N         12.6605    26.9597    10.7841 H            1 NAP273   0.0000
    72 H5N         10.4198    27.2169     9.9515 H            1 NAP273   0.0000
    73 H6N          8.7491    25.5669    10.4405 H            1 NAP273   0.0000
@<TRIPOS>BOND
     1    1    2      ar
     2    1    3      ar
     3    1    4       1
     4    1   23       1
     5    4    5       1
     6    5    6       1
     7    6    7       1
     8    6    8       1
     9    7   12       1
    10    8    9       1
    11    8   10       1
    12   10   11       1
    13   10   12       1
    14   11   45       1
    15   12   13       1
    16   13   14       1
    17   13   22       1
    18   14   15       2
    19   15   16       1
    20   16   17      ar
    21   16   22      ar
    22   17   18       1
    23   17   19      ar
    24   19   20      ar
    25   20   21      ar
    26   21   22      ar
    27   23   24       1
    28   24   25      ar
    29   24   26      ar
    30   24   27       1
    31   27   28       1
    32   28   29       1
    33   29   30       1
    34   29   31       1
    35   30   35       1
    36   31   32       1
    37   31   33       1
    38   33   34       1
    39   33   35       1
    40   35   36       1
    41   36   37      ar
    42   36   44      ar
    43   37   38      ar
    44   38   39       1
    45   38   42      ar
    46   39   40       2
    47   39   41      am
    48   42   43      ar
    49   43   44      ar
    50   45   46      ar
    51   45   47      ar
    52   45   48      ar
    53   43   72       1
    54    5   49       1
    55    5   50       1
    56    6   51       1
    57    8   52       1
    58    9   53       1
    59   10   54       1
    60   12   55       1
    61   14   56       1
    62   18   57       1
    63   18   58       1
    64   20   59       1
    65   44   73       1
    66   28   60       1
    67   28   61       1
    68   29   62       1
    69   31   63       1
    70   32   64       1
    71   33   65       1
    72   34   66       1
    73   35   67       1
    74   37   68       1
    75   41   69       1
    76   41   70       1
    77   42   71       1
@<TRIPOS>SUBSTRUCTURE
     1 NAP273      1 GROUP             4 A     NAP     0 **** NAP A 273
