@<TRIPOS>MOLECULE
4yry_FAD_3_ligand
   84    89     1     0     0
SMALL
NO_CHARGES


@<TRIPOS>ATOM
     1 PA         -33.6690    17.6240    17.9230 P.3          1 FAD503   0.0000
     2 O1A        -33.7820    18.7040    16.8910 O.co2        1 FAD503   0.0000
     3 O2A        -32.2190    17.2790    18.1200 O.co2        1 FAD503  -1.0000
     4 O5B        -34.2750    18.1350    19.3090 O.3          1 FAD503   0.0000
     5 C5B        -33.5020    17.8460    20.4950 C.3          1 FAD503   0.0000
     6 C4B        -33.6490    18.9840    21.5250 C.3          1 FAD503   0.0000
     7 O4B        -34.0080    18.4700    22.6630 O.3          1 FAD503   0.0000
     8 C3B        -32.2770    19.6520    21.7800 C.3          1 FAD503   0.0000
     9 O3B        -32.4300    20.9860    22.0110 O.3          1 FAD503   0.0000
    10 C2B        -31.7630    18.9500    23.0380 C.3          1 FAD503   0.0000
    11 O2B        -30.7880    19.8290    23.7740 O.3          1 FAD503   0.0000
    12 C1B        -32.8440    18.7760    23.7420 C.3          1 FAD503   0.0000
    13 N9A        -32.6850    17.6690    24.6150 N.pl3        1 FAD503   0.0000
    14 C8A        -32.2670    16.4170    24.2800 C.2          1 FAD503   0.0000
    15 N7A        -32.2530    15.6620    25.4100 N.2          1 FAD503   0.0000
    16 C5A        -32.6600    16.4510    26.4520 C.ar         1 FAD503   0.0000
    17 C6A        -32.8240    16.1850    27.8140 C.ar         1 FAD503   0.0000
    18 N6A        -32.6110    14.9590    28.5790 N.pl3        1 FAD503   0.0000
    19 N1A        -33.2460    17.1510    28.6390 N.ar         1 FAD503   0.0000
    20 C2A        -33.5200    18.4110    28.1430 C.ar         1 FAD503   0.0000
    21 N3A        -33.3570    18.6740    26.8060 N.ar         1 FAD503   0.0000
    22 C4A        -32.9270    17.6870    25.9650 C.ar         1 FAD503   0.0000
    23 N1         -33.4010    17.3460     8.1350 N.2          1 FAD503   0.0000
    24 C2         -33.9170    17.8310     6.8550 C.2          1 FAD503   0.0000
    25 O2         -35.0440    17.5750     6.5110 O.2          1 FAD503   0.0000
    26 N3         -33.0580    18.6310     5.9850 N.pl3        1 FAD503   0.0000
    27 C4         -31.7280    18.9330     6.3860 C.2          1 FAD503   0.0000
    28 O4         -31.0360    19.5760     5.6880 O.2          1 FAD503   0.0000
    29 C4X        -31.2190    18.4380     7.6850 C.2          1 FAD503   0.0000
    30 N5         -29.8760    18.7440     8.0890 N.2          1 FAD503   0.0000
    31 C5X        -29.3630    18.2600     9.3650 C.ar         1 FAD503   0.0000
    32 C6         -28.0390    18.5660     9.7710 C.ar         1 FAD503   0.0000
    33 C7         -27.5620    18.0940    11.0020 C.ar         1 FAD503   0.0000
    34 C7M        -26.1260    18.5980    11.1180 C.3          1 FAD503   0.0000
    35 C8         -28.3910    17.3250    11.8340 C.ar         1 FAD503   0.0000
    36 C8M        -27.8680    16.8150    13.1660 C.3          1 FAD503   0.0000
    37 C9         -29.6950    17.0250    11.4380 C.ar         1 FAD503   0.0000
    38 C9A        -30.1830    17.4990    10.1920 C.ar         1 FAD503   0.0000
    39 N10        -31.5730    17.1840     9.7810 N.pl3        1 FAD503   0.0000
    40 C10        -32.0680    17.6510     8.5360 C.2          1 FAD503   0.0000
    41 C1'        -32.4190    16.3630    10.6590 C.3          1 FAD503   0.0000
    42 C2'        -33.3160    17.2050    11.5420 C.3          1 FAD503   0.0000
    43 O2'        -32.5650    18.2520    12.1090 O.3          1 FAD503   0.0000
    44 C3'        -33.8480    16.3000    12.6350 C.3          1 FAD503   0.0000
    45 O3'        -34.3640    15.1040    12.0370 O.3          1 FAD503   0.0000
    46 C4'        -34.9280    16.9930    13.3910 C.3          1 FAD503   0.0000
    47 O4'        -34.4010    18.1930    13.9660 O.3          1 FAD503   0.0000
    48 C5'        -35.3990    16.0860    14.5000 C.3          1 FAD503   0.0000
    49 O5'        -36.0780    16.8470    15.4840 O.3          1 FAD503   0.0000
    50 P          -35.9950    16.3100    17.0040 P.3          1 FAD503   0.0000
    51 O1P        -36.4920    14.8580    17.0510 O.co2        1 FAD503   0.0000
    52 O2P        -36.8450    17.1810    17.9520 O.co2        1 FAD503  -1.0000
    53 O3P        -34.4610    16.3330    17.4380 O.3          1 FAD503   0.0000
    54 H5B1       -32.5385    17.7508    20.2449 H            1 FAD503   0.0000
    55 H5B2       -33.8273    16.9915    20.8999 H            1 FAD503   0.0000
    56 H4B        -34.3187    19.6584    21.2142 H            1 FAD503   0.0000
    57 H3B        -31.6587    19.4951    21.0099 H            1 FAD503   0.0000
    58 H5         -33.0106    21.1208    22.8139 H            1 FAD503   0.0000
    59 H2B        -31.3445    18.0714    22.8079 H            1 FAD503   0.0000
    60 H7         -31.2413    20.6797    24.0400 H            1 FAD503   0.0000
    61 H1B        -33.0587    19.6027    24.2621 H            1 FAD503   0.0000
    62 H8A        -32.0146    16.1074    23.3632 H            1 FAD503   0.0000
    63 H6A1       -32.7812    14.9485    29.5644 H            1 FAD503   0.0000
    64 H6A2       -32.2950    14.1301    28.1174 H            1 FAD503   0.0000
    65 H2A        -33.8374    19.1321    28.7588 H            1 FAD503   0.0000
    66 H13        -33.4051    18.9656     5.1089 H            1 FAD503   0.0000
    67 H14        -27.4479    19.1164     9.1814 H            1 FAD503   0.0000
    68 H7M1       -25.7331    18.2886    11.9840 H            1 FAD503   0.0000
    69 H7M2       -25.5840    18.2381    10.3586 H            1 FAD503   0.0000
    70 H7M3       -26.1200    19.5975    11.0875 H            1 FAD503   0.0000
    71 H8M1       -28.5837    16.2895    13.6260 H            1 FAD503   0.0000
    72 H8M2       -27.0727    16.2293    13.0096 H            1 FAD503   0.0000
    73 H8M3       -27.6033    17.5905    13.7392 H            1 FAD503   0.0000
    74 H21        -30.2849    16.4769    12.0310 H            1 FAD503   0.0000
    75 H1'1       -31.8300    15.8018    11.2405 H            1 FAD503   0.0000
    76 H1'2       -32.9906    15.7697    10.0922 H            1 FAD503   0.0000
    77 H2'        -34.0735    17.5774    11.0058 H            1 FAD503   0.0000
    78 H25        -32.9487    18.4925    13.0006 H            1 FAD503   0.0000
    79 H3'        -33.1046    16.0636    13.2607 H            1 FAD503   0.0000
    80 H27        -34.2624    14.3413    12.6757 H            1 FAD503   0.0000
    81 H4'        -35.6889    17.2110    12.7798 H            1 FAD503   0.0000
    82 H29        -34.4939    18.1546    14.9609 H            1 FAD503   0.0000
    83 H5'1       -34.6107    15.6326    14.9159 H            1 FAD503   0.0000
    84 H5'2       -36.0200    15.3976    14.1252 H            1 FAD503   0.0000
@<TRIPOS>BOND
     1    1    2      ar
     2    1    3      ar
     3    1    4       1
     4    1   53       1
     5    4    5       1
     6    5    6       1
     7    6    7       1
     8    6    8       1
     9    7   12       1
    10    8    9       1
    11    8   10       1
    12   10   11       1
    13   10   12       1
    14   12   13       1
    15   13   14       1
    16   13   22       1
    17   14   15       2
    18   15   16       1
    19   16   17      ar
    20   16   22      ar
    21   17   18       1
    22   17   19      ar
    23   19   20      ar
    24   20   21      ar
    25   21   22      ar
    26   23   24       1
    27   23   40       2
    28   24   25       2
    29   24   26       1
    30   26   27       1
    31   27   28       2
    32   27   29       1
    33   29   30       2
    34   29   40       1
    35   30   31       1
    36   31   32      ar
    37   31   38      ar
    38   32   33      ar
    39   33   34       1
    40   33   35      ar
    41   35   36       1
    42   35   37      ar
    43   37   38      ar
    44   38   39       1
    45   39   40       1
    46   39   41       1
    47   41   42       1
    48   42   43       1
    49   42   44       1
    50   44   45       1
    51   44   46       1
    52   46   47       1
    53   46   48       1
    54   48   49       1
    55   49   50       1
    56   50   51      ar
    57   50   52      ar
    58   50   53       1
    59   48   84       1
    60    5   54       1
    61    5   55       1
    62    6   56       1
    63    8   57       1
    64    9   58       1
    65   10   59       1
    66   11   60       1
    67   12   61       1
    68   14   62       1
    69   18   63       1
    70   18   64       1
    71   20   65       1
    72   26   66       1
    73   32   67       1
    74   34   68       1
    75   34   69       1
    76   34   70       1
    77   36   71       1
    78   36   72       1
    79   36   73       1
    80   37   74       1
    81   41   75       1
    82   41   76       1
    83   42   77       1
    84   43   78       1
    85   44   79       1
    86   45   80       1
    87   46   81       1
    88   47   82       1
    89   48   83       1
@<TRIPOS>SUBSTRUCTURE
     1 FAD503      1 GROUP             4 B     FAD     0 **** FAD B 503
