@<TRIPOS>MOLECULE
1izh_Q50_1_ligand
   99   101     1     0     0
SMALL
NO_CHARGES


@<TRIPOS>ATOM
     1 O49         17.7390    14.9760     5.8160 O.2          1 Q501001   0.0000
     2 C48         18.7310    15.4960     5.3870 C.2          1 Q501001   0.0000
     3 N50         19.5420    14.9160     4.4730 N.am         1 Q501001   0.0000
     4 C40         19.0200    16.8930     5.8830 C.3          1 Q501001   0.0000
     5 C41         19.6640    16.8490     7.2620 C.3          1 Q501001   0.0000
     6 C42         18.8460    16.2080     8.3310 C.ar         1 Q501001   0.0000
     7 C43         17.9980    17.0110     9.0630 C.ar         1 Q501001   0.0000
     8 C44         17.1940    16.4610    10.0440 C.ar         1 Q501001   0.0000
     9 C45         17.3020    15.1160    10.3240 C.ar         1 Q501001   0.0000
    10 C46         18.1740    14.3070     9.6040 C.ar         1 Q501001   0.0000
    11 C47         18.9600    14.8350     8.6010 C.ar         1 Q501001   0.0000
    12 N39         17.7630    17.6720     5.8330 N.am         1 Q501001   0.0000
    13 C37         17.7050    18.9640     5.4510 C.2          1 Q501001   0.0000
    14 O38         18.6960    19.6900     5.2780 O.2          1 Q501001   0.0000
    15 C31         16.2900    19.4800     5.3320 C.3          1 Q501001   0.0000
    16 C32         15.7940    19.5590     3.8840 C.3          1 Q501001   0.0000
    17 C33         15.6970    18.2300     3.1140 C.3          1 Q501001   0.0000
    18 C34         17.0490    17.8280     2.5830 C.2          1 Q501001   0.0000
    19 O35         17.7960    18.6550     2.0740 O.2          1 Q501001   0.0000
    20 N36         17.3610    16.5420     2.6910 N.am         1 Q501001   0.0000
    21 N30         16.1850    20.8720     5.6940 N.am         1 Q501001   0.0000
    22 C28         15.0460    21.3940     6.1270 C.2          1 Q501001   0.0000
    23 O29         14.0120    20.7170     6.2180 O.2          1 Q501001   0.0000
    24 C20         15.0840    22.8800     6.4190 C.3          1 Q501001   0.0000
    25 C21         15.6510    23.3280     7.7350 C.3          1 Q501001   0.0000
    26 C22         15.5260    22.2030     8.6680 C.ar         1 Q501001   0.0000
    27 C23         14.3090    21.9370     9.2910 C.ar         1 Q501001   0.0000
    28 C24         14.2700    20.8360    10.1510 C.ar         1 Q501001   0.0000
    29 C25         15.4180    20.0660    10.3660 C.ar         1 Q501001   0.0000
    30 C26         16.5890    20.3380     9.7170 C.ar         1 Q501001   0.0000
    31 C27         16.6440    21.4230     8.8610 C.ar         1 Q501001   0.0000
    32 C19         13.6800    23.4380     6.3340 C.3          1 Q501001   0.0000
    33 C17         13.4230    23.7170     4.8570 C.3          1 Q501001   0.0000
    34 O18         14.0780    24.9530     4.5370 O.3          1 Q501001   0.0000
    35 C9          11.9070    23.6980     4.5770 C.3          1 Q501001   0.0000
    36 N8          11.2360    24.8030     5.2760 N.am         1 Q501001   0.0000
    37 C6          10.7190    24.6790     6.4730 C.2          1 Q501001   0.0000
    38 O7          10.7920    23.6130     7.0740 O.2          1 Q501001   0.0000
    39 O5          10.0650    25.8830     7.0100 O.3          1 Q501001   0.0000
    40 C1           9.5900    26.1170     8.3260 C.3          1 Q501001   0.0000
    41 C4          10.7050    25.8170     9.3020 C.3          1 Q501001   0.0000
    42 C3           8.3440    25.2760     8.5850 C.3          1 Q501001   0.0000
    43 C2           9.2050    27.5960     8.4100 C.3          1 Q501001   0.0000
    44 C10         11.5760    23.9060     3.1030 C.3          1 Q501001   0.0000
    45 C11         10.0660    23.8980     2.8660 C.ar         1 Q501001   0.0000
    46 C12          9.4310    25.0740     2.5610 C.ar         1 Q501001   0.0000
    47 C13          8.0520    25.1340     2.3730 C.ar         1 Q501001   0.0000
    48 C14          7.2930    23.9690     2.4790 C.ar         1 Q501001   0.0000
    49 C15          7.9340    22.7860     2.7650 C.ar         1 Q501001   0.0000
    50 C16          9.3110    22.7290     2.9780 C.ar         1 Q501001   0.0000
    51 H1          20.3571    15.3974     4.1508 H            1 Q501001   0.0000
    52 H2          19.3265    14.0058     4.1194 H            1 Q501001   0.0000
    53 H3          19.6704    17.3160     5.2521 H            1 Q501001   0.0000
    54 H4          19.8559    17.7894     7.5428 H            1 Q501001   0.0000
    55 H5          20.5227    16.3422     7.1852 H            1 Q501001   0.0000
    56 H6          17.9642    17.9943     8.8840 H            1 Q501001   0.0000
    57 H7          16.5426    17.0317    10.5439 H            1 Q501001   0.0000
    58 H8          16.7466    14.7171    11.0537 H            1 Q501001   0.0000
    59 H9          18.2320    13.3314     9.8157 H            1 Q501001   0.0000
    60 H10         19.5911    14.2580     8.0825 H            1 Q501001   0.0000
    61 H11         16.9124    17.2168     6.0961 H            1 Q501001   0.0000
    62 H12         15.6678    18.9264     5.8855 H            1 Q501001   0.0000
    63 H13         16.4196    20.1556     3.3814 H            1 Q501001   0.0000
    64 H14         14.8818    19.9686     3.8979 H            1 Q501001   0.0000
    65 H15         15.0619    18.3383     2.3492 H            1 Q501001   0.0000
    66 H16         15.3597    17.5172     3.7289 H            1 Q501001   0.0000
    67 H17         18.2440    16.2120     2.3572 H            1 Q501001   0.0000
    68 H18         16.7130    15.9034     3.1061 H            1 Q501001   0.0000
    69 H19         16.9915    21.4581     5.6164 H            1 Q501001   0.0000
    70 H20         15.6232    23.3137     5.6971 H            1 Q501001   0.0000
    71 H21         15.1393    24.1158     8.0779 H            1 Q501001   0.0000
    72 H22         16.6133    23.5773     7.6262 H            1 Q501001   0.0000
    73 H23         13.5025    22.5061     9.1308 H            1 Q501001   0.0000
    74 H24         13.4170    20.5974    10.6151 H            1 Q501001   0.0000
    75 H25         15.3807    19.3004    11.0082 H            1 Q501001   0.0000
    76 H26         17.3938    19.7616     9.8586 H            1 Q501001   0.0000
    77 H27         17.4949    21.6407     8.3828 H            1 Q501001   0.0000
    78 H28         13.6100    24.2832     6.8639 H            1 Q501001   0.0000
    79 H29         13.0203    22.7714     6.6810 H            1 Q501001   0.0000
    80 H30         13.8498    22.9883     4.3215 H            1 Q501001   0.0000
    81 H31         14.3620    24.9413     3.5782 H            1 Q501001   0.0000
    82 H32         11.5227    22.8275     4.8847 H            1 Q501001   0.0000
    83 H33         11.1713    25.6892     4.8172 H            1 Q501001   0.0000
    84 H34         10.3835    25.9780    10.2351 H            1 Q501001   0.0000
    85 H35         10.9841    24.8616     9.2058 H            1 Q501001   0.0000
    86 H36         11.4848    26.4130     9.1106 H            1 Q501001   0.0000
    87 H37          8.0145    25.4456     9.5138 H            1 Q501001   0.0000
    88 H38          7.6319    25.5241     7.9282 H            1 Q501001   0.0000
    89 H39          8.5687    24.3070     8.4828 H            1 Q501001   0.0000
    90 H40          8.8639    27.8001     9.3276 H            1 Q501001   0.0000
    91 H41         10.0080    28.1608     8.2196 H            1 Q501001   0.0000
    92 H42          8.4916    27.7934     7.7376 H            1 Q501001   0.0000
    93 H43         11.9934    23.1710     2.5686 H            1 Q501001   0.0000
    94 H44         11.9475    24.7859     2.8068 H            1 Q501001   0.0000
    95 H45          9.9717    25.9104     2.4711 H            1 Q501001   0.0000
    96 H46          7.6097    26.0061     2.1636 H            1 Q501001   0.0000
    97 H47          6.3017    23.9931     2.3496 H            1 Q501001   0.0000
    98 H48          7.3979    21.9438     2.8217 H            1 Q501001   0.0000
    99 H49          9.7522    21.8616     3.2081 H            1 Q501001   0.0000
@<TRIPOS>BOND
     1    1    2       2
     2    2    3      am
     3    2    4       1
     4    4    5       1
     5    4   12       1
     6    5    6       1
     7    6    7      ar
     8    6   11      ar
     9    7    8      ar
    10    8    9      ar
    11    9   10      ar
    12   10   11      ar
    13   12   13      am
    14   13   14       2
    15   13   15       1
    16   15   16       1
    17   15   21       1
    18   16   17       1
    19   17   18       1
    20   18   19       2
    21   18   20      am
    22   21   22      am
    23   22   23       2
    24   22   24       1
    25   24   25       1
    26   24   32       1
    27   25   26       1
    28   26   27      ar
    29   26   31      ar
    30   27   28      ar
    31   28   29      ar
    32   29   30      ar
    33   30   31      ar
    34   32   33       1
    35   33   34       1
    36   33   35       1
    37   35   36       1
    38   35   44       1
    39   36   37      am
    40   37   38       2
    41   37   39       1
    42   39   40       1
    43   40   41       1
    44   40   42       1
    45   40   43       1
    46   44   45       1
    47   45   46      ar
    48   45   50      ar
    49   46   47      ar
    50   47   48      ar
    51   48   49      ar
    52   49   50      ar
    53    3   51       1
    54    3   52       1
    55    4   53       1
    56    5   54       1
    57    5   55       1
    58    7   56       1
    59    8   57       1
    60    9   58       1
    61   10   59       1
    62   11   60       1
    63   12   61       1
    64   15   62       1
    65   16   63       1
    66   16   64       1
    67   17   65       1
    68   17   66       1
    69   20   67       1
    70   20   68       1
    71   21   69       1
    72   24   70       1
    73   25   71       1
    74   25   72       1
    75   27   73       1
    76   28   74       1
    77   29   75       1
    78   30   76       1
    79   31   77       1
    80   32   78       1
    81   32   79       1
    82   33   80       1
    83   34   81       1
    84   35   82       1
    85   36   83       1
    86   41   84       1
    87   41   85       1
    88   41   86       1
    89   42   87       1
    90   42   88       1
    91   42   89       1
    92   43   90       1
    93   43   91       1
    94   43   92       1
    95   44   93       1
    96   44   94       1
    97   46   95       1
    98   47   96       1
    99   48   97       1
   100   49   98       1
   101   50   99       1
@<TRIPOS>SUBSTRUCTURE
     1 Q501001     1 GROUP             4 B     Q50     0 **** Q50 B1001
