@<TRIPOS>MOLECULE
1rj6_AZM_2_ligand
   18    18     1     0     0
SMALL
NO_CHARGES


@<TRIPOS>ATOM
     1 C1          10.9930    16.5180   -20.7630 C.2          1 AZM401   0.0000
     2 C2          12.1960    14.8590   -19.7560 C.2          1 AZM401   0.0000
     3 C3          13.6630    12.8280   -19.8090 C.2          1 AZM401   0.0000
     4 C4          14.3860    11.8770   -18.8700 C.3          1 AZM401   0.0000
     5 N1           8.7010    17.8150   -21.2240 N.3          1 AZM401  -1.0000
     6 N2          11.6570    15.6440   -18.8760 N.2          1 AZM401   0.0000
     7 N3          10.9320    16.6450   -19.4720 N.2          1 AZM401   0.0000
     8 N4          12.9390    13.8470   -19.1870 N.am         1 AZM401   0.0000
     9 O1          10.1000    17.0860   -23.1760 O.2          1 AZM401   0.0000
    10 O2          10.9800    18.8760   -21.8930 O.2          1 AZM401   0.0000
    11 O3          13.7680    12.6380   -21.0150 O.2          1 AZM401   0.0000
    12 S1          10.1600    17.6710   -21.8370 S.o2         1 AZM401   0.0000
    13 S2          11.9050    15.2080   -21.3850 S.3          1 AZM401   0.0000
    14 H1          14.8730    11.1866   -19.4049 H            1 AZM401   0.0000
    15 H2          15.0398    12.3903   -18.3141 H            1 AZM401   0.0000
    16 H3          13.7210    11.4282   -18.2730 H            1 AZM401   0.0000
    17 H4           8.6915    18.5605   -20.5575 H            1 AZM401   0.0000
    18 H5          12.9629    13.8419   -18.1873 H            1 AZM401   0.0000
@<TRIPOS>BOND
     1    1    7       2
     2    1   12       1
     3    1   13       1
     4    2    6       2
     5    2    8       1
     6    2   13       1
     7    3    4       1
     8    3    8      am
     9    3   11       2
    10    5   12       1
    11    6    7       1
    12    9   12       2
    13   10   12       2
    14    4   14       1
    15    4   15       1
    16    4   16       1
    17    8   18       1
    18    5   17       1
@<TRIPOS>SUBSTRUCTURE
     1 AZM401      1 GROUP             4 B     AZM     0 **** AZM B 401
