@<TRIPOS>MOLECULE
4jx1_CAH_2_ligand
   28    29     1     0     0
SMALL
NO_CHARGES


@<TRIPOS>ATOM
     1 C1         -81.6780     6.5940     0.4310 C.3          1 CAH503   0.0000
     2 C2         -80.2890     6.3830    -0.0210 C.2          1 CAH503   0.0000
     3 O2         -79.4750     7.2390    -0.3130 O.2          1 CAH503   0.0000
     4 C3         -79.9960     4.8680     0.1090 C.3          1 CAH503   0.0000
     5 C4         -81.1910     4.7180     1.0650 C.3          1 CAH503   0.0000
     6 C5         -80.7920     5.5590     2.1980 C.3          1 CAH503   0.0000
     7 O5         -81.2160     5.0710     3.3340 O.3          1 CAH503   0.0000
     8 C6         -81.4350     6.9580     1.8880 C.3          1 CAH503   0.0000
     9 C7         -82.2200     5.3770     0.4690 C.3          1 CAH503   0.0000
    10 C8         -82.6240     4.8410    -0.8800 C.3          1 CAH503   0.0000
    11 C9         -83.4600     5.3080     1.2990 C.3          1 CAH503   0.0000
    12 C10        -82.4510     7.6830    -0.3410 C.3          1 CAH503   0.0000
    13 H1         -79.1114     4.6576     0.5253 H            1 CAH503   0.0000
    14 H2         -80.0913     4.3590    -0.7465 H            1 CAH503   0.0000
    15 H3         -81.4003     3.7719     1.3122 H            1 CAH503   0.0000
    16 H4         -79.7958     5.6440     2.2194 H            1 CAH503   0.0000
    17 H5         -80.5807     5.3244     4.0635 H            1 CAH503   0.0000
    18 H6         -82.2748     7.1345     2.4013 H            1 CAH503   0.0000
    19 H7         -80.8034     7.7238     2.0087 H            1 CAH503   0.0000
    20 H8         -83.0203     3.9293    -0.7714 H            1 CAH503   0.0000
    21 H9         -83.3002     5.4515    -1.2924 H            1 CAH503   0.0000
    22 H10        -81.8196     4.7865    -1.4716 H            1 CAH503   0.0000
    23 H11        -83.8170     4.3740     1.2878 H            1 CAH503   0.0000
    24 H12        -83.2466     5.5721     2.2396 H            1 CAH503   0.0000
    25 H13        -84.1464     5.9318     0.9252 H            1 CAH503   0.0000
    26 H14        -83.3772     7.7594     0.0282 H            1 CAH503   0.0000
    27 H15        -81.9796     8.5594    -0.2427 H            1 CAH503   0.0000
    28 H16        -82.4973     7.4361    -1.3089 H            1 CAH503   0.0000
@<TRIPOS>BOND
     1    1    2       1
     2    1    8       1
     3    1    9       1
     4    1   12       1
     5    2    3       2
     6    2    4       1
     7    4    5       1
     8    5    6       1
     9    5    9       1
    10    6    7       1
    11    6    8       1
    12    9   10       1
    13    9   11       1
    14    4   13       1
    15    4   14       1
    16    5   15       1
    17    6   16       1
    18    7   17       1
    19    8   18       1
    20    8   19       1
    21   10   20       1
    22   10   21       1
    23   10   22       1
    24   11   23       1
    25   11   24       1
    26   11   25       1
    27   12   26       1
    28   12   27       1
    29   12   28       1
@<TRIPOS>SUBSTRUCTURE
     1 CAH503      1 GROUP             4 A     CAH     0 **** CAH A 503
