@<TRIPOS>MOLECULE
4mc3_28U_1_ligand
   42    41     1     0     0
SMALL
NO_CHARGES


@<TRIPOS>ATOM
     1 C4          13.8890    40.3210    14.0900 C.3          1 28U401   0.0000
     2 C5          13.6770    42.4570    12.7470 C.3          1 28U401   0.0000
     3 C6          12.4990    42.4360    11.7920 C.3          1 28U401   0.0000
     4 C7          11.6820    43.6510    11.4590 C.2          1 28U401   0.0000
     5 C8          11.5460    44.8140    12.1530 C.2          1 28U401   0.0000
     6 C10         12.3510    45.2160    13.3630 C.3          1 28U401   0.0000
     7 C13         10.0890    45.7750    15.5810 C.2          1 28U401   0.0000
     8 C15         11.0060    45.3640    16.7170 C.3          1 28U401   0.0000
     9 O16         14.4250    42.3910    15.1050 O.3          1 28U401   0.0000
    10 C3          13.4780    41.8130    14.1730 C.3          1 28U401   0.0000
    11 C2          12.0530    41.8870    14.7450 C.2          1 28U401   0.0000
    12 C1          11.4730    43.0940    14.9740 C.2          1 28U401   0.0000
    13 C9          10.2070    45.5320    12.1750 C.3          1 28U401   0.0000
    14 C11          9.2280    44.9250    13.2340 C.3          1 28U401   0.0000
    15 C12          9.5900    44.8410    14.7260 C.2          1 28U401   0.0000
    16 C14         10.2140    47.2590    15.2830 C.3          1 28U401   0.0000
    17 H1          13.7704    39.8922    14.9856 H            1 28U401   0.0000
    18 H2          13.3143    39.8538    13.4180 H            1 28U401   0.0000
    19 H3          14.8475    40.2542    13.8128 H            1 28U401   0.0000
    20 H4          13.9325    43.4139    12.8847 H            1 28U401   0.0000
    21 H5          14.4300    41.9716    12.3028 H            1 28U401   0.0000
    22 H6          11.8557    41.7678    12.1658 H            1 28U401   0.0000
    23 H7          12.8588    42.1012    10.9211 H            1 28U401   0.0000
    24 H8          11.1638    43.5982    10.6054 H            1 28U401   0.0000
    25 H9          12.0512    46.1162    13.6787 H            1 28U401   0.0000
    26 H10         12.2151    44.5449    14.0918 H            1 28U401   0.0000
    27 H11         13.3205    45.2535    13.1209 H            1 28U401   0.0000
    28 H12         11.2737    46.1739    17.2389 H            1 28U401   0.0000
    29 H13         10.5266    44.7240    17.3174 H            1 28U401   0.0000
    30 H14         11.8223    44.9232    16.3436 H            1 28U401   0.0000
    31 H15         14.2291    43.3651    15.2181 H            1 28U401   0.0000
    32 H16         11.5524    41.0457    14.9488 H            1 28U401   0.0000
    33 H17         10.5460    43.1407    15.3461 H            1 28U401   0.0000
    34 H18         11.9731    43.9357    14.7705 H            1 28U401   0.0000
    35 H19          9.7878    45.4594    11.2700 H            1 28U401   0.0000
    36 H20         10.3617    46.4953    12.3944 H            1 28U401   0.0000
    37 H21          9.0419    43.9881    12.9382 H            1 28U401   0.0000
    38 H22          8.3879    45.4647    13.1800 H            1 28U401   0.0000
    39 H23          9.4313    43.9446    15.1399 H            1 28U401   0.0000
    40 H24          9.5998    47.5011    14.5319 H            1 28U401   0.0000
    41 H25          9.9678    47.7844    16.0974 H            1 28U401   0.0000
    42 H26         11.1567    47.4686    15.0235 H            1 28U401   0.0000
@<TRIPOS>BOND
     1    1   10       1
     2    2    3       1
     3    2   10       1
     4    3    4       1
     5    4    5       2
     6    5    6       1
     7    5   13       1
     8    7    8       1
     9    7   15       2
    10    7   16       1
    11    9   10       1
    12   10   11       1
    13   11   12       2
    14   13   14       1
    15   14   15       1
    16    1   17       1
    17    1   18       1
    18    1   19       1
    19    2   20       1
    20    2   21       1
    21    3   22       1
    22    3   23       1
    23    4   24       1
    24    6   25       1
    25    6   26       1
    26    6   27       1
    27    8   28       1
    28    8   29       1
    29    8   30       1
    30    9   31       1
    31   11   32       1
    32   12   33       1
    33   12   34       1
    34   13   35       1
    35   13   36       1
    36   14   37       1
    37   14   38       1
    38   15   39       1
    39   16   40       1
    40   16   41       1
    41   16   42       1
@<TRIPOS>SUBSTRUCTURE
     1 28U401      1 GROUP             4 A     28U     0 **** 28U A 401
