@<TRIPOS>MOLECULE
2dg3_RAP_1_ligand
  144   147     1     0     0
SMALL
NO_CHARGES


@<TRIPOS>ATOM
     1 C1           4.6540     8.3310    12.1420 C.2          1 RAP501   0.0000
     2 O1           4.1800     9.4560    12.9280 O.3          1 RAP501   0.0000
     3 O2           5.4620     8.5020    11.2340 O.2          1 RAP501   0.0000
     4 C2           4.1400     6.9540    12.4830 C.3          1 RAP501   0.0000
     5 C3           3.5660     6.2530    11.2440 C.3          1 RAP501   0.0000
     6 C4           2.1530     6.7040    10.8850 C.3          1 RAP501   0.0000
     7 C5           1.2430     6.5720    12.0950 C.3          1 RAP501   0.0000
     8 C6           1.8010     7.4470    13.2130 C.3          1 RAP501   0.0000
     9 N7           3.1330     6.9330    13.5710 N.am         1 RAP501   0.0000
    10 C8           3.5010     6.4750    14.7780 C.2          1 RAP501   0.0000
    11 O3           4.6500     6.1410    15.0310 O.2          1 RAP501   0.0000
    12 C9           2.4770     6.3710    15.8260 C.2          1 RAP501   0.0000
    13 O4           1.7840     5.3640    15.8720 O.2          1 RAP501   0.0000
    14 C10          2.2440     7.4960    16.8160 C.3          1 RAP501   0.0000
    15 O5           1.5260     8.5020    16.0910 O.3          1 RAP501   0.0000
    16 O6           1.4480     7.0150    17.9060 O.3          1 RAP501   0.0000
    17 C11          3.5590     8.0740    17.3680 C.3          1 RAP501   0.0000
    18 C12          3.3220     9.3800    18.1260 C.3          1 RAP501   0.0000
    19 C13          2.5200    10.3740    17.2860 C.3          1 RAP501   0.0000
    20 C14          1.2360     9.7390    16.7500 C.3          1 RAP501   0.0000
    21 C15          0.5960    10.6390    15.6960 C.3          1 RAP501   0.0000
    22 C16         -0.2160    11.8170    16.2400 C.3          1 RAP501   0.0000
    23 O7          -1.2820    11.3480    17.0680 O.3          1 RAP501   0.0000
    24 C17         -0.7340    12.6080    15.0650 C.2          1 RAP501   0.0000
    25 C18         -0.1240    13.7690    14.7570 C.2          1 RAP501   0.0000
    26 C19         -0.5290    14.6070    13.6280 C.2          1 RAP501   0.0000
    27 C20          0.0120    15.8110    13.4530 C.2          1 RAP501   0.0000
    28 C21         -0.3980    16.6060    12.3000 C.2          1 RAP501   0.0000
    29 C22          0.4190    17.5390    11.8150 C.2          1 RAP501   0.0000
    30 C23          0.0010    18.3450    10.6040 C.3          1 RAP501   0.0000
    31 C24          1.1040    18.3280     9.5430 C.3          1 RAP501   0.0000
    32 C25          1.6130    16.9240     9.2040 C.3          1 RAP501   0.0000
    33 C26          3.0250    17.0000     8.6680 C.2          1 RAP501   0.0000
    34 O8           3.2170    17.1120     7.4660 O.2          1 RAP501   0.0000
    35 C27          4.2190    16.9730     9.5930 C.3          1 RAP501   0.0000
    36 O9           5.3400    17.5710     8.9310 O.3          1 RAP501   0.0000
    37 C28          4.6440    15.5560     9.9970 C.3          1 RAP501   0.0000
    38 O10          4.8330    14.7540     8.8260 O.3          1 RAP501   0.0000
    39 C29          3.6830    14.8860    10.9460 C.2          1 RAP501   0.0000
    40 C30          2.9360    13.8500    10.5070 C.2          1 RAP501   0.0000
    41 C31          1.9480    13.0940    11.3710 C.3          1 RAP501   0.0000
    42 C32          2.5630    11.7760    11.7520 C.2          1 RAP501   0.0000
    43 O11          2.2560    10.7460    11.1660 O.2          1 RAP501   0.0000
    44 C33          3.5780    11.7560    12.8750 C.3          1 RAP501   0.0000
    45 C34          4.7000    10.7490    12.6160 C.3          1 RAP501   0.0000
    46 C35          5.9590    11.0200    13.4580 C.3          1 RAP501   0.0000
    47 C36          6.7020    12.3120    13.0910 C.3          1 RAP501   0.0000
    48 C37          7.1680    12.4400    11.6400 C.3          1 RAP501   0.0000
    49 C38          7.8690    13.7950    11.4940 C.3          1 RAP501   0.0000
    50 C39          8.4720    14.0240    10.1030 C.3          1 RAP501   0.0000
    51 O12          9.2530    15.2220    10.1090 O.3          1 RAP501   0.0000
    52 C40          9.3630    12.8550     9.6750 C.3          1 RAP501   0.0000
    53 O13          9.8240    13.0450     8.3310 O.3          1 RAP501   0.0000
    54 C41          8.6260    11.5210     9.8040 C.3          1 RAP501   0.0000
    55 C42          8.1250    11.3140    11.2340 C.3          1 RAP501   0.0000
    56 C43          4.3330     7.0840    18.2390 C.3          1 RAP501   0.0000
    57 C44         -1.9000    12.0980    14.2580 C.3          1 RAP501   0.0000
    58 C45         -0.3540    19.7750    11.0030 C.3          1 RAP501   0.0000
    59 C46          0.6920    16.2030     8.2160 C.3          1 RAP501   0.0000
    60 C47          3.5960    15.3880    12.3630 C.3          1 RAP501   0.0000
    61 C48          0.6360    12.8950    10.6130 C.3          1 RAP501   0.0000
    62 C49          5.6620    11.0230    14.9580 C.3          1 RAP501   0.0000
    63 C50         -1.7280    12.3370    17.9990 C.3          1 RAP501   0.0000
    64 C51          5.4080    18.9880     9.1070 C.3          1 RAP501   0.0000
    65 C52          8.4730    16.3850     9.8250 C.3          1 RAP501   0.0000
    66 H1           4.9225     6.4140    12.7931 H            1 RAP501   0.0000
    67 H2           3.5488     5.2684    11.4177 H            1 RAP501   0.0000
    68 H3           4.1656     6.4439    10.4668 H            1 RAP501   0.0000
    69 H4           1.8018     6.1336    10.1425 H            1 RAP501   0.0000
    70 H5           2.1751     7.6592    10.5897 H            1 RAP501   0.0000
    71 H6           1.2149     5.6183    12.3943 H            1 RAP501   0.0000
    72 H7           0.3197     6.8743    11.8581 H            1 RAP501   0.0000
    73 H8           1.1967     7.4072    14.0088 H            1 RAP501   0.0000
    74 H9           1.8757     8.3932    12.8982 H            1 RAP501   0.0000
    75 H10          0.5688     6.6892    17.5584 H            1 RAP501   0.0000
    76 H11          4.1384     8.2905    16.5822 H            1 RAP501   0.0000
    77 H12          4.2056     9.7874    18.3567 H            1 RAP501   0.0000
    78 H13          2.8169     9.1817    18.9660 H            1 RAP501   0.0000
    79 H14          3.0807    10.6759    16.5150 H            1 RAP501   0.0000
    80 H15          2.2815    11.1621    17.8534 H            1 RAP501   0.0000
    81 H16          0.5938     9.5830    17.5005 H            1 RAP501   0.0000
    82 H17         -0.0141    10.0754    15.1391 H            1 RAP501   0.0000
    83 H18          1.3265    11.0077    15.1212 H            1 RAP501   0.0000
    84 H19          0.3852    12.4014    16.7850 H            1 RAP501   0.0000
    85 H20          0.6405    14.0719    15.3260 H            1 RAP501   0.0000
    86 H21         -1.2168    14.2732    12.9834 H            1 RAP501   0.0000
    87 H22          0.6874    16.1643    14.1003 H            1 RAP501   0.0000
    88 H23         -1.2899    16.4506    11.8753 H            1 RAP501   0.0000
    89 H24          1.3044    17.7063    12.2487 H            1 RAP501   0.0000
    90 H25         -0.8147    17.9190    10.2125 H            1 RAP501   0.0000
    91 H26          1.8740    18.8698     9.8798 H            1 RAP501   0.0000
    92 H27          0.7443    18.7434     8.7075 H            1 RAP501   0.0000
    93 H28          1.6334    16.3916    10.0502 H            1 RAP501   0.0000
    94 H29          4.0068    17.4985    10.4169 H            1 RAP501   0.0000
    95 H30          5.5271    15.6262    10.4609 H            1 RAP501   0.0000
    96 H31          5.1099    13.8315     9.0949 H            1 RAP501   0.0000
    97 H32          3.0415    13.5649     9.5543 H            1 RAP501   0.0000
    98 H33          1.7687    13.6226    12.2007 H            1 RAP501   0.0000
    99 H34          3.1134    11.5099    13.7256 H            1 RAP501   0.0000
   100 H35          3.9775    12.6683    12.9653 H            1 RAP501   0.0000
   101 H36          4.9445    10.7763    11.6467 H            1 RAP501   0.0000
   102 H37          6.5905    10.2634    13.2883 H            1 RAP501   0.0000
   103 H38          7.5101    12.3751    13.6767 H            1 RAP501   0.0000
   104 H39          6.0905    13.0796    13.2829 H            1 RAP501   0.0000
   105 H40          6.3691    12.4206    11.0388 H            1 RAP501   0.0000
   106 H41          8.6041    13.8457    12.1701 H            1 RAP501   0.0000
   107 H42          7.2014    14.5178    11.6726 H            1 RAP501   0.0000
   108 H43          7.7295    14.1247     9.4407 H            1 RAP501   0.0000
   109 H44         10.1599    12.8317    10.2787 H            1 RAP501   0.0000
   110 H45          9.0390    13.0994     7.7139 H            1 RAP501   0.0000
   111 H46          9.2499    10.7772     9.5642 H            1 RAP501   0.0000
   112 H47          7.8453    11.5159     9.1791 H            1 RAP501   0.0000
   113 H48          7.6448    10.4386    11.2903 H            1 RAP501   0.0000
   114 H49          8.9065    11.3062    11.8579 H            1 RAP501   0.0000
   115 H50          5.1738     7.5149    18.5668 H            1 RAP501   0.0000
   116 H51          3.7694     6.8159    19.0203 H            1 RAP501   0.0000
   117 H52          4.5621     6.2737    17.6996 H            1 RAP501   0.0000
   118 H53         -2.1059    12.7452    13.5240 H            1 RAP501   0.0000
   119 H54         -1.6687    11.2088    13.8632 H            1 RAP501   0.0000
   120 H55         -2.6992    12.0016    14.8513 H            1 RAP501   0.0000
   121 H56         -0.6269    20.2898    10.1903 H            1 RAP501   0.0000
   122 H57         -1.1097    19.7605    11.6578 H            1 RAP501   0.0000
   123 H58          0.4421    20.2115    11.4223 H            1 RAP501   0.0000
   124 H59          1.0586    15.2932     8.0216 H            1 RAP501   0.0000
   125 H60         -0.2213    16.1163     8.6140 H            1 RAP501   0.0000
   126 H61          0.6371    16.7286     7.3670 H            1 RAP501   0.0000
   127 H62          2.9212    14.8488    12.8668 H            1 RAP501   0.0000
   128 H63          4.4894    15.2995    12.8034 H            1 RAP501   0.0000
   129 H64          3.3196    16.3490    12.3598 H            1 RAP501   0.0000
   130 H65         -0.0100    12.3955    11.1902 H            1 RAP501   0.0000
   131 H66          0.2501    13.7863    10.3749 H            1 RAP501   0.0000
   132 H67          0.8094    12.3730     9.7779 H            1 RAP501   0.0000
   133 H68          6.5054    11.2023    15.4644 H            1 RAP501   0.0000
   134 H69          4.9917    11.7360    15.1637 H            1 RAP501   0.0000
   135 H70          5.2946    10.1326    15.2268 H            1 RAP501   0.0000
   136 H71         -2.4714    11.9622    18.5529 H            1 RAP501   0.0000
   137 H72         -0.9690    12.6007    18.5943 H            1 RAP501   0.0000
   138 H73         -2.0555    13.1399    17.5010 H            1 RAP501   0.0000
   139 H74          6.2073    19.3459     8.6243 H            1 RAP501   0.0000
   140 H75          4.5796    19.4098     8.7385 H            1 RAP501   0.0000
   141 H76          5.4847    19.1996    10.0813 H            1 RAP501   0.0000
   142 H77          9.0617    17.1932     9.8407 H            1 RAP501   0.0000
   143 H78          8.0559    16.2940     8.9207 H            1 RAP501   0.0000
   144 H79          7.7555    16.4818    10.5148 H            1 RAP501   0.0000
@<TRIPOS>BOND
     1    1    2       1
     2    1    3       2
     3    1    4       1
     4    2   45       1
     5    4    5       1
     6    4    9       1
     7    5    6       1
     8    6    7       1
     9    7    8       1
    10    8    9       1
    11    9   10      am
    12   10   11       2
    13   10   12       1
    14   12   13       2
    15   12   14       1
    16   14   15       1
    17   14   16       1
    18   14   17       1
    19   15   20       1
    20   17   18       1
    21   17   56       1
    22   18   19       1
    23   19   20       1
    24   20   21       1
    25   21   22       1
    26   22   23       1
    27   22   24       1
    28   23   63       1
    29   24   25       2
    30   24   57       1
    31   25   26       1
    32   26   27       2
    33   27   28       1
    34   28   29       2
    35   29   30       1
    36   30   31       1
    37   30   58       1
    38   31   32       1
    39   32   33       1
    40   32   59       1
    41   33   34       2
    42   33   35       1
    43   35   36       1
    44   35   37       1
    45   36   64       1
    46   37   38       1
    47   37   39       1
    48   39   40       2
    49   39   60       1
    50   40   41       1
    51   41   42       1
    52   41   61       1
    53   42   43       2
    54   42   44       1
    55   44   45       1
    56   45   46       1
    57   46   47       1
    58   46   62       1
    59   47   48       1
    60   48   49       1
    61   48   55       1
    62   49   50       1
    63   50   51       1
    64   50   52       1
    65   51   65       1
    66   52   53       1
    67   52   54       1
    68   54   55       1
    69    4   66       1
    70    5   67       1
    71    5   68       1
    72    6   69       1
    73    6   70       1
    74    7   71       1
    75    7   72       1
    76    8   73       1
    77    8   74       1
    78   16   75       1
    79   17   76       1
    80   18   77       1
    81   18   78       1
    82   19   79       1
    83   19   80       1
    84   20   81       1
    85   21   82       1
    86   21   83       1
    87   22   84       1
    88   25   85       1
    89   26   86       1
    90   27   87       1
    91   28   88       1
    92   29   89       1
    93   30   90       1
    94   31   91       1
    95   31   92       1
    96   32   93       1
    97   35   94       1
    98   37   95       1
    99   38   96       1
   100   40   97       1
   101   41   98       1
   102   44   99       1
   103   44  100       1
   104   45  101       1
   105   46  102       1
   106   47  103       1
   107   47  104       1
   108   48  105       1
   109   49  106       1
   110   49  107       1
   111   50  108       1
   112   52  109       1
   113   53  110       1
   114   54  111       1
   115   54  112       1
   116   55  113       1
   117   55  114       1
   118   56  115       1
   119   56  116       1
   120   56  117       1
   121   57  118       1
   122   57  119       1
   123   57  120       1
   124   58  121       1
   125   58  122       1
   126   58  123       1
   127   59  124       1
   128   59  125       1
   129   59  126       1
   130   60  127       1
   131   60  128       1
   132   60  129       1
   133   61  130       1
   134   61  131       1
   135   61  132       1
   136   62  133       1
   137   62  134       1
   138   62  135       1
   139   63  136       1
   140   63  137       1
   141   63  138       1
   142   64  139       1
   143   64  140       1
   144   64  141       1
   145   65  142       1
   146   65  143       1
   147   65  144       1
@<TRIPOS>SUBSTRUCTURE
     1 RAP501      1 GROUP             4 A     RAP     0 **** RAP A 501
