@<TRIPOS>MOLECULE
3b6c_SDN_2_ligand
   34    36     1     0     0
SMALL
NO_CHARGES


@<TRIPOS>ATOM
     1 O4         -28.0730    -6.5390    -5.1470 O.3          1 SDN302   0.0000
     2 C11        -28.6190    -7.6020    -4.9370 C.ar         1 SDN302   0.0000
     3 C12        -28.3770    -8.6610    -5.8030 C.ar         1 SDN302   0.0000
     4 C13        -27.5270    -8.5150    -6.8690 C.ar         1 SDN302   0.0000
     5 O5         -26.9840    -7.4020    -7.0310 O.3          1 SDN302   0.0000
     6 C14        -27.2620    -9.5770    -7.7270 C.ar         1 SDN302   0.0000
     7 C15        -26.3160    -9.4310    -8.8240 C.2          1 SDN302   0.0000
     8 O3         -25.7710   -10.6550    -9.4250 O.3          1 SDN302   0.0000
     9 C16        -25.7720    -8.1070    -9.2190 C.2          1 SDN302   0.0000
    10 C10        -29.4630    -7.7510    -3.8440 C.ar         1 SDN302   0.0000
    11 C9         -30.0790    -8.9850    -3.6060 C.ar         1 SDN302   0.0000
    12 C8         -29.8390   -10.0610    -4.4870 C.ar         1 SDN302   0.0000
    13 C7         -28.9960    -9.8940    -5.5770 C.ar         1 SDN302   0.0000
    14 C6         -28.7450   -10.9420    -6.4610 C.ar         1 SDN302   0.0000
    15 C5         -27.8800   -10.7880    -7.5430 C.ar         1 SDN302   0.0000
    16 C4         -27.6410   -11.9560    -8.4620 C.3          1 SDN302   0.0000
    17 C3         -26.6750   -11.7300    -9.6170 C.3          1 SDN302   0.0000
    18 C2         -27.3940   -11.5340   -10.9410 C.3          1 SDN302   0.0000
    19 C1         -26.6120   -12.2300   -12.0340 C.2          1 SDN302   0.0000
    20 O2         -27.0430   -13.2880   -12.5280 O.co2        1 SDN302   0.0000
    21 O1         -25.5560   -11.7150   -12.4170 O.co2        1 SDN302  -1.0000
    22 H1         -28.2343    -5.7646    -4.5352 H            1 SDN302   0.0000
    23 H2         -27.1752    -6.6550    -6.3943 H            1 SDN302   0.0000
    24 H3         -25.1235    -8.0389    -9.9771 H            1 SDN302   0.0000
    25 H4         -26.0542    -7.2835    -8.7269 H            1 SDN302   0.0000
    26 H5         -29.6298    -6.9798    -3.2297 H            1 SDN302   0.0000
    27 H6         -30.6839    -9.1032    -2.8185 H            1 SDN302   0.0000
    28 H7         -30.2771   -10.9454    -4.3257 H            1 SDN302   0.0000
    29 H8         -29.1951   -11.8231    -6.3158 H            1 SDN302   0.0000
    30 H9         -28.5231   -12.2204    -8.8519 H            1 SDN302   0.0000
    31 H10        -27.2820   -12.7081    -7.9093 H            1 SDN302   0.0000
    32 H11        -26.1254   -12.5609    -9.7041 H            1 SDN302   0.0000
    33 H12        -27.4596   -10.5573   -11.1456 H            1 SDN302   0.0000
    34 H13        -28.3126   -11.9252   -10.8848 H            1 SDN302   0.0000
@<TRIPOS>BOND
     1    1    2       1
     2    2    3      ar
     3    2   10      ar
     4    3    4      ar
     5    3   13      ar
     6    4    5       1
     7    4    6      ar
     8    6    7       1
     9    6   15      ar
    10    7    8       1
    11    7    9       2
    12    8   17       1
    13   10   11      ar
    14   11   12      ar
    15   12   13      ar
    16   13   14      ar
    17   14   15      ar
    18   15   16       1
    19   16   17       1
    20   17   18       1
    21   18   19       1
    22   19   20      ar
    23   19   21      ar
    24    1   22       1
    25    5   23       1
    26    9   24       1
    27    9   25       1
    28   10   26       1
    29   11   27       1
    30   12   28       1
    31   14   29       1
    32   16   30       1
    33   16   31       1
    34   17   32       1
    35   18   33       1
    36   18   34       1
@<TRIPOS>SUBSTRUCTURE
     1 SDN302      1 GROUP             4 A     SDN     0 **** SDN A 302
