@<TRIPOS>MOLECULE
4die_C5P_4_ligand
   33    34     1     0     0
SMALL
NO_CHARGES


@<TRIPOS>ATOM
     1 O3P         -6.4070    -8.6280   -34.8270 O.co2        1 C5P301   0.0000
     2 P           -6.7650    -7.1840   -35.1050 P.3          1 C5P301   0.0000
     3 O1P         -5.5800    -6.2550   -35.0740 O.co2        1 C5P301  -1.0000
     4 O2P         -7.6810    -7.0250   -36.3280 O.co2        1 C5P301  -1.0000
     5 O5'         -7.6140    -6.5840   -33.8770 O.3          1 C5P301   0.0000
     6 C5'         -8.2850    -5.3530   -34.0970 C.3          1 C5P301   0.0000
     7 C4'         -8.7000    -4.7610   -32.7660 C.3          1 C5P301   0.0000
     8 O4'         -9.8620    -5.4320   -32.2570 O.3          1 C5P301   0.0000
     9 C3'         -7.6650    -4.8910   -31.6670 C.3          1 C5P301   0.0000
    10 O3'         -6.6970    -3.8640   -31.7240 O.3          1 C5P301   0.0000
    11 C2'         -8.5210    -4.7890   -30.4260 C.3          1 C5P301   0.0000
    12 O2'         -8.9170    -3.4400   -30.1540 O.3          1 C5P301   0.0000
    13 C1'         -9.7740    -5.5310   -30.8320 C.3          1 C5P301   0.0000
    14 N1          -9.8710    -6.9330   -30.4310 N.pl3        1 C5P301   0.0000
    15 C2         -10.4010    -7.2310   -29.1500 C.2          1 C5P301   0.0000
    16 N3         -10.5770    -8.5070   -28.7450 N.2          1 C5P301   0.0000
    17 C4         -10.2720    -9.5440   -29.5640 C.2          1 C5P301   0.0000
    18 C5          -9.7660    -9.2780   -30.8480 C.2          1 C5P301   0.0000
    19 C6          -9.5690    -7.9460   -31.2600 C.2          1 C5P301   0.0000
    20 O2         -10.7060    -6.3290   -28.3570 O.2          1 C5P301   0.0000
    21 N4         -10.4620   -10.8090   -29.1120 N.pl3        1 C5P301   0.0000
    22 H5'1        -9.0967    -5.5113   -34.6593 H            1 C5P301   0.0000
    23 H5'2        -7.6720    -4.7184   -34.5677 H            1 C5P301   0.0000
    24 H4'         -8.9155    -3.7931   -32.8951 H            1 C5P301   0.0000
    25 H3'         -7.2231    -5.7870   -31.7109 H            1 C5P301   0.0000
    26 H5          -6.0360    -3.9875   -30.9839 H            1 C5P301   0.0000
    27 H2'         -8.0792    -5.2124   -29.6351 H            1 C5P301   0.0000
    28 H7          -9.4798    -3.4180   -29.3277 H            1 C5P301   0.0000
    29 H1'        -10.5570    -5.0461   -30.4423 H            1 C5P301   0.0000
    30 H9          -9.5466   -10.0322   -31.4669 H            1 C5P301   0.0000
    31 H10         -9.2038    -7.7539   -32.1709 H            1 C5P301   0.0000
    32 H11        -10.2436   -11.5880   -29.6997 H            1 C5P301   0.0000
    33 H12        -10.8205   -10.9624   -28.1912 H            1 C5P301   0.0000
@<TRIPOS>BOND
     1    1    2      ar
     2    2    3      ar
     3    2    4      ar
     4    2    5       1
     5    5    6       1
     6    6    7       1
     7    7    8       1
     8    7    9       1
     9    8   13       1
    10    9   10       1
    11    9   11       1
    12   11   12       1
    13   11   13       1
    14   13   14       1
    15   14   15       1
    16   14   19       1
    17   15   16       1
    18   15   20       2
    19   16   17       2
    20   17   18       1
    21   17   21       1
    22   18   19       2
    23   21   33       1
    24   21   32       1
    25    6   22       1
    26    6   23       1
    27    7   24       1
    28    9   25       1
    29   10   26       1
    30   11   27       1
    31   12   28       1
    32   13   29       1
    33   18   30       1
    34   19   31       1
@<TRIPOS>SUBSTRUCTURE
     1 C5P301      1 GROUP             4 D     C5P     0 **** C5P D 301
