@<TRIPOS>MOLECULE
5iw5_NMN_2_ligand
   36    37     1     0     0
SMALL
NO_CHARGES


@<TRIPOS>ATOM
     1 O3P        143.7570    13.0150    38.9450 O.co2        1 NMN302   0.0000
     2 P          142.3610    12.7500    39.3850 P.3          1 NMN302   0.0000
     3 O1P        141.3820    13.8760    39.5030 O.co2        1 NMN302  -1.0000
     4 O2P        142.3400    11.7990    40.5150 O.co2        1 NMN302  -1.0000
     5 O5R        141.6920    11.8620    38.2800 O.3          1 NMN302   0.0000
     6 C5R        142.1450    10.5420    38.3120 C.3          1 NMN302   0.0000
     7 C4R        141.3500     9.9520    37.2190 C.3          1 NMN302   0.0000
     8 O4R        141.4960     8.5690    37.0540 O.3          1 NMN302   0.0000
     9 C3R        139.9070    10.1650    37.5520 C.3          1 NMN302   0.0000
    10 O3R        139.5400    11.4970    37.2020 O.3          1 NMN302   0.0000
    11 C2R        139.2700     9.1090    36.7020 C.3          1 NMN302   0.0000
    12 O2R        138.4330     9.6820    35.7050 O.3          1 NMN302   0.0000
    13 C1R        140.4760     8.4630    36.0910 C.3          1 NMN302   0.0000
    14 N1         140.0830     7.1690    35.6130 N.ar         1 NMN302   1.0000
    15 C2         138.8880     7.1530    35.0710 C.ar         1 NMN302   0.0000
    16 C3         138.3520     6.0160    34.5600 C.ar         1 NMN302   0.0000
    17 C7         136.9700     6.0240    33.9600 C.2          1 NMN302   0.0000
    18 O7         136.4906     5.0225    33.4658 O.2          1 NMN302   0.0000
    19 N7         136.2897     7.1564    33.9627 N.am         1 NMN302   0.0000
    20 C4         139.1260     4.8960    34.6010 C.ar         1 NMN302   0.0000
    21 C5         140.3710     4.9380    35.1420 C.ar         1 NMN302   0.0000
    22 C6         140.8490     6.1070    35.6420 C.ar         1 NMN302   0.0000
    23 H5R1       141.9458    10.1055    39.1894 H            1 NMN302   0.0000
    24 H5R2       143.1259    10.4847    38.1263 H            1 NMN302   0.0000
    25 H4R        141.5668    10.4158    36.3600 H            1 NMN302   0.0000
    26 H3R        139.7363     9.9920    38.5220 H            1 NMN302   0.0000
    27 H5         140.1032    12.1439    37.7161 H            1 NMN302   0.0000
    28 H2R        138.7613     8.4567    37.2639 H            1 NMN302   0.0000
    29 H7         137.5051     9.7800    36.0648 H            1 NMN302   0.0000
    30 H1R        140.7466     9.0108    35.2993 H            1 NMN302   0.0000
    31 H9         138.3587     8.0006    35.0336 H            1 NMN302   0.0000
    32 H10        135.3826     7.1958    33.5436 H            1 NMN302   0.0000
    33 H11        136.6818     7.9743    34.3838 H            1 NMN302   0.0000
    34 H12        138.7749     4.0363    34.2300 H            1 NMN302   0.0000
    35 H13        140.9335     4.1117    35.1721 H            1 NMN302   0.0000
    36 H14        141.7710     6.1560    36.0261 H            1 NMN302   0.0000
@<TRIPOS>BOND
     1    1    2      ar
     2    2    3      ar
     3    2    4      ar
     4    2    5       1
     5    5    6       1
     6    6    7       1
     7    7    8       1
     8    7    9       1
     9    8   13       1
    10    9   10       1
    11    9   11       1
    12   11   12       1
    13   11   13       1
    14   13   14       1
    15   14   15      ar
    16   14   22      ar
    17   15   16      ar
    18   16   17       1
    19   16   20      ar
    20   17   18       2
    21   17   19      am
    22   20   21      ar
    23   21   22      ar
    24   22   36       1
    25   21   35       1
    26    6   23       1
    27    6   24       1
    28    7   25       1
    29    9   26       1
    30   10   27       1
    31   11   28       1
    32   12   29       1
    33   13   30       1
    34   15   31       1
    35   19   32       1
    36   19   33       1
    37   20   34       1
@<TRIPOS>SUBSTRUCTURE
     1 NMN302      1 GROUP             4 B     NMN     0 **** NMN B 302
