@<TRIPOS>MOLECULE
4pz2_NAD_4_ligand
   70    74     1     0     0
SMALL
NO_CHARGES


@<TRIPOS>ATOM
     1 PA          76.1300    31.4580    14.7710 P.3          1 NAD603   0.0000
     2 O1A         76.2590    31.0330    13.3630 O.co2        1 NAD603   0.0000
     3 O2A         76.7290    32.8550    15.0060 O.co2        1 NAD603  -1.0000
     4 O5B         76.8110    30.4160    15.7380 O.3          1 NAD603   0.0000
     5 C5B         76.2780    29.1120    16.0550 C.3          1 NAD603   0.0000
     6 C4B         77.3460    28.3650    16.8160 C.3          1 NAD603   0.0000
     7 O4B         78.5530    28.3160    16.0220 O.3          1 NAD603   0.0000
     8 C3B         77.7570    28.9250    18.1800 C.3          1 NAD603   0.0000
     9 O3B         78.0450    27.8620    19.0840 O.3          1 NAD603   0.0000
    10 C2B         79.0200    29.7270    17.8520 C.3          1 NAD603   0.0000
    11 O2B         79.8890    29.8530    18.9710 O.3          1 NAD603   0.0000
    12 C1B         79.6370    28.8530    16.7570 C.3          1 NAD603   0.0000
    13 N9A         80.5530    29.5170    15.8270 N.pl3        1 NAD603   0.0000
    14 C8A         80.6040    30.8470    15.4960 C.2          1 NAD603   0.0000
    15 N7A         81.5860    31.1600    14.6870 N.2          1 NAD603   0.0000
    16 C5A         82.2220    29.9490    14.4560 C.ar         1 NAD603   0.0000
    17 C6A         83.3380    29.5920    13.6650 C.ar         1 NAD603   0.0000
    18 N6A         84.0650    30.4640    12.9620 N.pl3        1 NAD603   0.0000
    19 N1A         83.6930    28.2870    13.6300 N.ar         1 NAD603   0.0000
    20 C2A         82.9820    27.4060    14.3440 C.ar         1 NAD603   0.0000
    21 N3A         81.9240    27.6230    15.1320 N.ar         1 NAD603   0.0000
    22 C4A         81.5890    28.9250    15.1440 C.ar         1 NAD603   0.0000
    23 O3          74.5720    31.4770    15.1560 O.3          1 NAD603   0.0000
    24 PN          73.7500    31.9120    16.4620 P.3          1 NAD603   0.0000
    25 O1N         73.7220    33.3950    16.4790 O.co2        1 NAD603   0.0000
    26 O2N         74.3160    31.1930    17.6270 O.co2        1 NAD603  -1.0000
    27 O5D         72.2980    31.2910    16.2020 O.3          1 NAD603   0.0000
    28 C5D         71.3000    31.9380    15.3840 C.3          1 NAD603   0.0000
    29 C4D         71.2350    31.2170    14.0610 C.3          1 NAD603   0.0000
    30 O4D         70.8990    29.8270    14.2800 O.3          1 NAD603   0.0000
    31 C3D         70.1900    31.7280    13.0710 C.3          1 NAD603   0.0000
    32 O3D         70.7530    31.8700    11.7700 O.3          1 NAD603   0.0000
    33 C2D         69.1210    30.6300    13.1340 C.3          1 NAD603   0.0000
    34 O2D         68.3250    30.4610    11.9660 O.3          1 NAD603   0.0000
    35 C1D         69.9750    29.3640    13.3450 C.3          1 NAD603   0.0000
    36 N1N         69.1270    28.2420    13.9450 N.ar         1 NAD603   1.0000
    37 C2N         68.8970    27.1360    13.0890 C.ar         1 NAD603   0.0000
    38 C3N         68.1960    26.0380    13.5640 C.ar         1 NAD603   0.0000
    39 C7N         67.8330    24.8600    12.6770 C.2          1 NAD603   0.0000
    40 O7N         67.2783    23.8537    13.1724 O.2          1 NAD603   0.0000
    41 N7N         68.0172    24.9897    11.3879 N.am         1 NAD603   0.0000
    42 C4N         67.7230    26.0620    14.8770 C.ar         1 NAD603   0.0000
    43 C5N         67.9370    27.1690    15.6880 C.ar         1 NAD603   0.0000
    44 C6N         68.6480    28.2520    15.2030 C.ar         1 NAD603   0.0000
    45 H5B1        76.0503    28.6214    15.2139 H            1 NAD603   0.0000
    46 H5B2        75.4575    29.2053    16.6190 H            1 NAD603   0.0000
    47 H4B         77.0282    27.4266    16.9515 H            1 NAD603   0.0000
    48 H3B         77.0437    29.5211    18.5486 H            1 NAD603   0.0000
    49 H5          77.2319    27.2910    19.1969 H            1 NAD603   0.0000
    50 H2B         78.7804    30.6277    17.4897 H            1 NAD603   0.0000
    51 H7          79.6531    30.6777    19.4850 H            1 NAD603   0.0000
    52 H1B         80.1253    28.0980    17.1947 H            1 NAD603   0.0000
    53 H8A         79.9491    31.5190    15.8418 H            1 NAD603   0.0000
    54 H6A1        84.8438    30.1450    12.4219 H            1 NAD603   0.0000
    55 H6A2        83.8307    31.4361    12.9756 H            1 NAD603   0.0000
    56 H2A         83.2836    26.4548    14.2791 H            1 NAD603   0.0000
    57 H5D1        71.5516    32.8945    15.2362 H            1 NAD603   0.0000
    58 H5D2        70.4099    31.8938    15.8377 H            1 NAD603   0.0000
    59 H4D         72.1350    31.2634    13.6276 H            1 NAD603   0.0000
    60 H3D         69.8121    32.5996    13.3833 H            1 NAD603   0.0000
    61 H17         70.0534    32.2049    11.1388 H            1 NAD603   0.0000
    62 H2D         68.5309    30.7768    13.9279 H            1 NAD603   0.0000
    63 H19         67.8363    31.3111    11.7698 H            1 NAD603   0.0000
    64 H1D         70.4213    29.0755    12.4979 H            1 NAD603   0.0000
    65 H2N         69.2379    27.1475    12.1490 H            1 NAD603   0.0000
    66 H7N1        67.6357    24.3135    10.7577 H            1 NAD603   0.0000
    67 H7N2        68.5396    25.7650    11.0330 H            1 NAD603   0.0000
    68 H4N         67.2246    25.2736    15.2377 H            1 NAD603   0.0000
    69 H5N         67.5777    27.1831    16.6211 H            1 NAD603   0.0000
    70 H6N         68.8069    29.0461    15.7897 H            1 NAD603   0.0000
@<TRIPOS>BOND
     1    1    2      ar
     2    1    3      ar
     3    1    4       1
     4    1   23       1
     5    4    5       1
     6    5    6       1
     7    6    7       1
     8    6    8       1
     9    7   12       1
    10    8    9       1
    11    8   10       1
    12   10   11       1
    13   10   12       1
    14   12   13       1
    15   13   14       1
    16   13   22       1
    17   14   15       2
    18   15   16       1
    19   16   17      ar
    20   16   22      ar
    21   17   18       1
    22   17   19      ar
    23   19   20      ar
    24   20   21      ar
    25   21   22      ar
    26   23   24       1
    27   24   25      ar
    28   24   26      ar
    29   24   27       1
    30   27   28       1
    31   28   29       1
    32   29   30       1
    33   29   31       1
    34   30   35       1
    35   31   32       1
    36   31   33       1
    37   33   34       1
    38   33   35       1
    39   35   36       1
    40   36   37      ar
    41   36   44      ar
    42   37   38      ar
    43   38   39       1
    44   38   42      ar
    45   39   40       2
    46   39   41      am
    47   42   43      ar
    48   43   44      ar
    49   44   70       1
    50    5   45       1
    51    5   46       1
    52    6   47       1
    53    8   48       1
    54    9   49       1
    55   10   50       1
    56   11   51       1
    57   12   52       1
    58   14   53       1
    59   18   54       1
    60   18   55       1
    61   20   56       1
    62   43   69       1
    63   28   57       1
    64   28   58       1
    65   29   59       1
    66   31   60       1
    67   32   61       1
    68   33   62       1
    69   34   63       1
    70   35   64       1
    71   37   65       1
    72   41   66       1
    73   41   67       1
    74   42   68       1
@<TRIPOS>SUBSTRUCTURE
     1 NAD603      1 GROUP             4 D     NAD     0 **** NAD D 603
