@<TRIPOS>MOLECULE
4pl8_ATP_2_ligand
   43    45     1     0     0
SMALL
NO_CHARGES


@<TRIPOS>ATOM
     1 PG          -9.2280    29.5260   -19.2460 P.3          1 ATP401   0.0000
     2 O1G         -8.0430    30.4130   -18.9970 O.co2        1 ATP401   0.0000
     3 O2G         -8.9670    28.0410   -19.4390 O.co2        1 ATP401  -1.0000
     4 O3G        -10.4310    29.8630   -18.3900 O.co2        1 ATP401  -1.0000
     5 PB         -10.2880    29.2130   -21.9370 P.3          1 ATP401   0.0000
     6 O1B        -10.8080    27.8360   -21.6090 O.co2        1 ATP401   0.0000
     7 O2B        -11.2660    30.1750   -22.6110 O.co2        1 ATP401  -1.0000
     8 O3B         -9.6480    30.0340   -20.7280 O.3          1 ATP401   0.0000
     9 PA          -8.7910    27.9560   -24.0630 P.3          1 ATP401   0.0000
    10 O1A         -8.0130    26.7570   -23.5530 O.co2        1 ATP401   0.0000
    11 O2A        -10.0420    27.6590   -24.8650 O.co2        1 ATP401  -1.0000
    12 O3A         -8.9930    29.0260   -22.8910 O.3          1 ATP401   0.0000
    13 O5'         -7.7420    28.7430   -25.0100 O.3          1 ATP401   0.0000
    14 C5'         -7.9490    30.1000   -25.4130 C.3          1 ATP401   0.0000
    15 C4'         -6.6070    30.8230   -25.5660 C.3          1 ATP401   0.0000
    16 O4'         -5.7150    30.0300   -26.3580 O.3          1 ATP401   0.0000
    17 C3'         -6.7320    32.1770   -26.2590 C.3          1 ATP401   0.0000
    18 O3'         -5.9290    33.1280   -25.5580 O.3          1 ATP401   0.0000
    19 C2'         -6.1400    31.9550   -27.6310 C.3          1 ATP401   0.0000
    20 O2'         -5.5680    33.1590   -28.1760 O.3          1 ATP401   0.0000
    21 C1'         -5.1120    30.8710   -27.3400 C.3          1 ATP401   0.0000
    22 N9          -4.7700    30.0710   -28.5310 N.pl3        1 ATP401   0.0000
    23 C8          -5.6070    29.3960   -29.3480 C.2          1 ATP401   0.0000
    24 N7          -4.9200    28.7870   -30.3430 N.2          1 ATP401   0.0000
    25 C5          -3.6210    29.0950   -30.1730 C.ar         1 ATP401   0.0000
    26 C6          -2.3570    28.7920   -30.8740 C.ar         1 ATP401   0.0000
    27 N6          -2.3430    28.0100   -31.9790 N.pl3        1 ATP401   0.0000
    28 N1          -1.2270    29.3280   -30.3660 N.ar         1 ATP401   0.0000
    29 C2          -1.2310    30.0950   -29.2670 C.ar         1 ATP401   0.0000
    30 N3          -2.3390    30.4140   -28.5680 N.ar         1 ATP401   0.0000
    31 C4          -3.5350    29.9380   -28.9780 C.ar         1 ATP401   0.0000
    32 H5'1        -8.4987    30.5687   -24.7216 H            1 ATP401   0.0000
    33 H5'2        -8.4321    30.1136   -26.2884 H            1 ATP401   0.0000
    34 H4'         -6.2051    30.9574   -24.6602 H            1 ATP401   0.0000
    35 H3'         -7.6855    32.4732   -26.3150 H            1 ATP401   0.0000
    36 H5          -6.5086    33.8704   -25.2220 H            1 ATP401   0.0000
    37 H2'         -6.8409    31.6012   -28.2503 H            1 ATP401   0.0000
    38 H7          -5.6367    33.1388   -29.1734 H            1 ATP401   0.0000
    39 H1'         -4.2833    31.2858   -26.9643 H            1 ATP401   0.0000
    40 H9          -6.5995    29.3520   -29.2336 H            1 ATP401   0.0000
    41 H10         -1.4786    27.8143   -32.4421 H            1 ATP401   0.0000
    42 H11         -3.1971    27.6280   -32.3321 H            1 ATP401   0.0000
    43 H12         -0.3552    30.4541   -28.9444 H            1 ATP401   0.0000
@<TRIPOS>BOND
     1    1    2      ar
     2    1    3      ar
     3    1    4      ar
     4    1    8       1
     5    5    6      ar
     6    5    7      ar
     7    5    8       1
     8    5   12       1
     9    9   10      ar
    10    9   11      ar
    11    9   12       1
    12    9   13       1
    13   13   14       1
    14   14   15       1
    15   15   16       1
    16   15   17       1
    17   16   21       1
    18   17   18       1
    19   17   19       1
    20   19   20       1
    21   19   21       1
    22   21   22       1
    23   22   23       1
    24   22   31       1
    25   23   24       2
    26   24   25       1
    27   25   26      ar
    28   25   31      ar
    29   26   27       1
    30   26   28      ar
    31   28   29      ar
    32   29   30      ar
    33   30   31      ar
    34   29   43       1
    35   27   42       1
    36   27   41       1
    37   23   40       1
    38   14   32       1
    39   14   33       1
    40   15   34       1
    41   17   35       1
    42   18   36       1
    43   19   37       1
    44   20   38       1
    45   21   39       1
@<TRIPOS>SUBSTRUCTURE
     1 ATP401      1 GROUP             4 B     ATP     0 **** ATP B 401
