@<TRIPOS>MOLECULE
1i7p_FAD_1_ligand
   84    89     1     0     0
SMALL
NO_CHARGES


@<TRIPOS>ATOM
     1 PA          24.1210    68.0370    12.0790 P.3          1 FAD301   0.0000
     2 O1A         22.7900    68.5890    12.4040 O.co2        1 FAD301   0.0000
     3 O2A         24.9050    67.2040    12.7560 O.co2        1 FAD301  -1.0000
     4 O5B         24.5390    69.4030    11.6710 O.3          1 FAD301   0.0000
     5 C5B         25.7830    69.9970    11.2550 C.3          1 FAD301   0.0000
     6 C4B         25.3390    71.4350    10.7500 C.3          1 FAD301   0.0000
     7 O4B         26.6840    72.0440    10.4780 O.3          1 FAD301   0.0000
     8 C3B         24.6110    71.3830     9.3490 C.3          1 FAD301   0.0000
     9 O3B         23.2190    71.6030     9.3530 O.3          1 FAD301   0.0000
    10 C2B         25.5090    72.3150     8.4560 C.3          1 FAD301   0.0000
    11 O2B         25.0430    73.6320     8.4310 O.3          1 FAD301   0.0000
    12 C1B         26.8920    72.3400     9.0620 C.3          1 FAD301   0.0000
    13 N9A         27.9190    71.4120     8.5190 N.pl3        1 FAD301   0.0000
    14 C8A         28.4590    70.2780     9.1000 C.2          1 FAD301   0.0000
    15 N7A         29.3530    69.6260     8.3810 N.2          1 FAD301   0.0000
    16 C5A         29.4380    70.3580     7.2280 C.ar         1 FAD301   0.0000
    17 C6A         30.2420    70.1570     5.9880 C.ar         1 FAD301   0.0000
    18 N6A         31.0560    69.1480     5.7970 N.pl3        1 FAD301   0.0000
    19 N1A         30.0700    71.1110     4.9840 N.ar         1 FAD301   0.0000
    20 C2A         29.2000    72.1850     5.1420 C.ar         1 FAD301   0.0000
    21 N3A         28.4210    72.4410     6.2440 N.ar         1 FAD301   0.0000
    22 C4A         28.5510    71.5070     7.2740 C.ar         1 FAD301   0.0000
    23 N1          17.9420    67.1610     4.3330 N.2          1 FAD301   0.0000
    24 C2          18.2280    66.3280     3.3060 C.2          1 FAD301   0.0000
    25 O2          19.3410    65.9800     2.9940 O.2          1 FAD301   0.0000
    26 N3          17.1760    65.8020     2.4960 N.pl3        1 FAD301   0.0000
    27 C4          15.8300    66.1130     2.7250 C.2          1 FAD301   0.0000
    28 O4          14.9830    65.6040     2.0280 O.2          1 FAD301   0.0000
    29 C4X         15.5090    67.0400     3.8230 C.2          1 FAD301   0.0000
    30 N5          14.2250    67.4080     4.0910 N.2          1 FAD301   0.0000
    31 C5X         13.9380    68.3030     5.1000 C.ar         1 FAD301   0.0000
    32 C6          12.5740    68.6840     5.3430 C.ar         1 FAD301   0.0000
    33 C7          12.2460    69.6140     6.3480 C.ar         1 FAD301   0.0000
    34 C7M         10.7880    69.9800     6.5850 C.3          1 FAD301   0.0000
    35 C8          13.2970    70.2190     7.1610 C.ar         1 FAD301   0.0000
    36 C8M         13.1220    71.2340     8.2750 C.3          1 FAD301   0.0000
    37 C9          14.6300    69.8470     6.9310 C.ar         1 FAD301   0.0000
    38 C9A         14.9810    68.8940     5.9210 C.ar         1 FAD301   0.0000
    39 N10         16.3240    68.4480     5.6210 N.pl3        1 FAD301   0.0000
    40 C10         16.6470    67.5590     4.6180 C.2          1 FAD301   0.0000
    41 C1'         17.2790    69.0980     6.5680 C.3          1 FAD301   0.0000
    42 C2'         18.0080    68.0320     7.3510 C.3          1 FAD301   0.0000
    43 O2'         16.9630    67.6030     8.3020 O.3          1 FAD301   0.0000
    44 C3'         18.9450    68.3770     8.4740 C.3          1 FAD301   0.0000
    45 O3'         19.6450    69.5740     8.6750 O.3          1 FAD301   0.0000
    46 C4'         20.0390    67.3440     7.9890 C.3          1 FAD301   0.0000
    47 O4'         20.1130    66.0340     7.3750 O.3          1 FAD301   0.0000
    48 C5'         21.2010    67.7250     8.8720 C.3          1 FAD301   0.0000
    49 O5'         21.6870    66.5920     9.7320 O.3          1 FAD301   0.0000
    50 P           23.0070    66.1570    10.2120 P.3          1 FAD301   0.0000
    51 O1P         22.4520    65.4140    11.4130 O.co2        1 FAD301   0.0000
    52 O2P         23.5470    65.3630     9.1980 O.co2        1 FAD301  -1.0000
    53 O3P         23.8050    67.3590    10.6130 O.3          1 FAD301   0.0000
    54 H5B1        26.2037    69.4704    10.5162 H            1 FAD301   0.0000
    55 H5B2        26.4223    70.0663    12.0208 H            1 FAD301   0.0000
    56 H4B         24.8179    71.9414    11.4371 H            1 FAD301   0.0000
    57 H3B         24.7439    70.4547     9.0018 H            1 FAD301   0.0000
    58 H5          23.0356    72.5800     9.2438 H            1 FAD301   0.0000
    59 H2B         25.5530    71.9529     7.5249 H            1 FAD301   0.0000
    60 H7          25.6420    74.1866     7.8535 H            1 FAD301   0.0000
    61 H1B         27.2462    73.2723     8.9886 H            1 FAD301   0.0000
    62 H8A         28.1874    69.9704    10.0120 H            1 FAD301   0.0000
    63 H6A1        31.5666    69.0727     4.9405 H            1 FAD301   0.0000
    64 H6A2        31.1666    68.4533     6.5078 H            1 FAD301   0.0000
    65 H2A         29.1357    72.8315     4.3818 H            1 FAD301   0.0000
    66 H13         17.4085    65.1907     1.7395 H            1 FAD301   0.0000
    67 H14         11.8452    68.2818     4.7889 H            1 FAD301   0.0000
    68 H7M1        10.7283    70.6475     7.3272 H            1 FAD301   0.0000
    69 H7M2        10.4034    70.3743     5.7504 H            1 FAD301   0.0000
    70 H7M3        10.2742    69.1587     6.8331 H            1 FAD301   0.0000
    71 H8M1        14.0166    71.4699     8.6545 H            1 FAD301   0.0000
    72 H8M2        12.6869    72.0573     7.9105 H            1 FAD301   0.0000
    73 H8M3        12.5472    70.8438     8.9942 H            1 FAD301   0.0000
    74 H21         15.3533    70.2575     7.4862 H            1 FAD301   0.0000
    75 H1'1        16.7749    69.6891     7.1976 H            1 FAD301   0.0000
    76 H1'2        17.9393    69.6451     6.0536 H            1 FAD301   0.0000
    77 H2'         18.3441    67.2857     6.7764 H            1 FAD301   0.0000
    78 H25         16.1747    67.2535     7.7957 H            1 FAD301   0.0000
    79 H3'         18.5550    68.0682     9.3415 H            1 FAD301   0.0000
    80 H27         18.9955    70.3294     8.7616 H            1 FAD301   0.0000
    81 H4'         20.3339    67.8614     7.1857 H            1 FAD301   0.0000
    82 H29         20.6002    66.1010     6.5043 H            1 FAD301   0.0000
    83 H5'1        20.9151    68.4760     9.4673 H            1 FAD301   0.0000
    84 H5'2        21.9557    68.0292     8.2907 H            1 FAD301   0.0000
@<TRIPOS>BOND
     1    1    2      ar
     2    1    3      ar
     3    1    4       1
     4    1   53       1
     5    4    5       1
     6    5    6       1
     7    6    7       1
     8    6    8       1
     9    7   12       1
    10    8    9       1
    11    8   10       1
    12   10   11       1
    13   10   12       1
    14   12   13       1
    15   13   14       1
    16   13   22       1
    17   14   15       2
    18   15   16       1
    19   16   17      ar
    20   16   22      ar
    21   17   18       1
    22   17   19      ar
    23   19   20      ar
    24   20   21      ar
    25   21   22      ar
    26   23   24       1
    27   23   40       2
    28   24   25       2
    29   24   26       1
    30   26   27       1
    31   27   28       2
    32   27   29       1
    33   29   30       2
    34   29   40       1
    35   30   31       1
    36   31   32      ar
    37   31   38      ar
    38   32   33      ar
    39   33   34       1
    40   33   35      ar
    41   35   36       1
    42   35   37      ar
    43   37   38      ar
    44   38   39       1
    45   39   40       1
    46   39   41       1
    47   41   42       1
    48   42   43       1
    49   42   44       1
    50   44   45       1
    51   44   46       1
    52   46   47       1
    53   46   48       1
    54   48   49       1
    55   49   50       1
    56   50   51      ar
    57   50   52      ar
    58   50   53       1
    59   48   84       1
    60    5   54       1
    61    5   55       1
    62    6   56       1
    63    8   57       1
    64    9   58       1
    65   10   59       1
    66   11   60       1
    67   12   61       1
    68   14   62       1
    69   18   63       1
    70   18   64       1
    71   20   65       1
    72   26   66       1
    73   32   67       1
    74   34   68       1
    75   34   69       1
    76   34   70       1
    77   36   71       1
    78   36   72       1
    79   36   73       1
    80   37   74       1
    81   41   75       1
    82   41   76       1
    83   42   77       1
    84   43   78       1
    85   44   79       1
    86   45   80       1
    87   46   81       1
    88   47   82       1
    89   48   83       1
@<TRIPOS>SUBSTRUCTURE
     1 FAD301      1 GROUP             4 A     FAD     0 **** FAD A 301
