@<TRIPOS>MOLECULE
4jzb_IPE_1_ligand
   23    22     1     0     0
SMALL
NO_CHARGES


@<TRIPOS>ATOM
     1 C1          51.0770    45.7170    36.0600 C.3          1 IPE404   0.0000
     2 O1          50.5240    45.8740    34.7540 O.3          1 IPE404   0.0000
     3 C2          52.6020    45.6280    35.9650 C.3          1 IPE404   0.0000
     4 C3          53.2230    46.8630    35.3450 C.2          1 IPE404   0.0000
     5 C4          53.1020    48.0600    35.9010 C.2          1 IPE404   0.0000
     6 C5          54.0050    46.7200    34.0760 C.3          1 IPE404   0.0000
     7 PA          48.9990    46.3420    34.5460 P.3          1 IPE404   0.0000
     8 O1A         48.7840    46.4900    33.0620 O.co2        1 IPE404   0.0000
     9 O2A         48.7310    47.5400    35.4370 O.co2        1 IPE404  -1.0000
    10 O3A         48.1830    45.0890    35.1700 O.3          1 IPE404   0.0000
    11 PB          46.8290    44.3760    34.6230 P.3          1 IPE404   0.0000
    12 O1B         45.9610    45.4360    33.9640 O.co2        1 IPE404   0.0000
    13 O2B         47.3790    43.3470    33.6590 O.co2        1 IPE404  -1.0000
    14 O3B         46.2570    43.8230    35.9050 O.co2        1 IPE404  -1.0000
    15 H1          50.7200    44.8797    36.4741 H            1 IPE404   0.0000
    16 H2          50.8241    46.5023    36.6250 H            1 IPE404   0.0000
    17 H3          52.8418    44.8344    35.4058 H            1 IPE404   0.0000
    18 H4          52.9735    45.5113    36.8861 H            1 IPE404   0.0000
    19 H5          53.5231    48.8572    35.4683 H            1 IPE404   0.0000
    20 H6          52.5896    48.1660    36.7532 H            1 IPE404   0.0000
    21 H7          54.3488    47.6156    33.7936 H            1 IPE404   0.0000
    22 H8          54.7748    46.0998    34.2269 H            1 IPE404   0.0000
    23 H9          53.4136    46.3491    33.3600 H            1 IPE404   0.0000
@<TRIPOS>BOND
     1    1    2       1
     2    1    3       1
     3    2    7       1
     4    3    4       1
     5    4    5       2
     6    4    6       1
     7    7    8      ar
     8    7    9      ar
     9    7   10       1
    10   10   11       1
    11   11   12      ar
    12   11   13      ar
    13   11   14      ar
    14    1   15       1
    15    1   16       1
    16    3   17       1
    17    3   18       1
    18    5   19       1
    19    5   20       1
    20    6   21       1
    21    6   22       1
    22    6   23       1
@<TRIPOS>SUBSTRUCTURE
     1 IPE404      1 GROUP             4 A     IPE     0 **** IPE A 404
