@<TRIPOS>MOLECULE
4v06_IMD_1_ligand
    9     9     1     0     0
SMALL
NO_CHARGES


@<TRIPOS>ATOM
     1 N1          -9.8610    24.3820   -36.4570 N.2          1 IMD600   0.0000
     2 C2         -11.0400    23.9950   -35.9280 C.2          1 IMD600   0.0000
     3 N3         -11.9700    24.1640   -36.8830 N.pl3        1 IMD600   0.0000
     4 C4         -11.3770    24.6520   -37.9920 C.2          1 IMD600   0.0000
     5 C5         -10.0290    24.7960   -37.7290 C.2          1 IMD600   0.0000
     6 H1         -11.1927    23.6487   -35.0024 H            1 IMD600   0.0000
     7 H2         -11.8338    24.8712   -38.8541 H            1 IMD600   0.0000
     8 H3          -9.3246    25.1363   -38.3519 H            1 IMD600   0.0000
     9 H4         -12.9444    23.9608   -36.7871 H            1 IMD600   0.0000
@<TRIPOS>BOND
     1    1    2       2
     2    1    5       1
     3    2    3       1
     4    3    4       1
     5    4    5       2
     6    5    8       1
     7    2    6       1
     8    4    7       1
     9    3    9       1
@<TRIPOS>SUBSTRUCTURE
     1 IMD600      1 GROUP             4 A     IMD     0 **** IMD A 600
