@<TRIPOS>MOLECULE
1f9a_ATP_1_ligand
   43    45     1     0     0
SMALL
NO_CHARGES


@<TRIPOS>ATOM
     1 PG          40.3490    20.0640    39.8800 P.3          1 ATP700   0.0000
     2 O1G         40.2300    21.4610    40.3480 O.co2        1 ATP700   0.0000
     3 O2G         40.7570    19.9990    38.4820 O.co2        1 ATP700  -1.0000
     4 O3G         41.2150    19.3030    40.8350 O.co2        1 ATP700  -1.0000
     5 PB          37.4450    19.7260    39.5980 P.3          1 ATP700   0.0000
     6 O1B         36.7380    19.8880    40.9200 O.co2        1 ATP700   0.0000
     7 O2B         37.2410    20.8450    38.6740 O.co2        1 ATP700  -1.0000
     8 O3B         38.9370    19.3190    39.9140 O.3          1 ATP700   0.0000
     9 PA          37.3100    17.0170    38.5160 P.3          1 ATP700   0.0000
    10 O1A         38.3640    16.7660    37.5330 O.co2        1 ATP700   0.0000
    11 O2A         37.5770    16.4370    39.8160 O.co2        1 ATP700  -1.0000
    12 O3A         36.9720    18.5590    38.6580 O.3          1 ATP700   0.0000
    13 O5'         35.9600    16.5710    37.8030 O.3          1 ATP700   0.0000
    14 C5'         35.3150    17.3630    36.8120 C.3          1 ATP700   0.0000
    15 C4'         33.9810    16.6530    36.5280 C.3          1 ATP700   0.0000
    16 O4'         33.0230    17.0710    37.5200 O.3          1 ATP700   0.0000
    17 C3'         33.3570    17.0780    35.2160 C.3          1 ATP700   0.0000
    18 O3'         32.1380    16.3900    34.8710 O.3          1 ATP700   0.0000
    19 C2'         33.0240    18.5800    35.6760 C.3          1 ATP700   0.0000
    20 O2'         31.7570    18.8220    34.9810 O.3          1 ATP700   0.0000
    21 C1'         32.6780    18.3390    37.1380 C.3          1 ATP700   0.0000
    22 N9          32.6210    19.2880    38.1840 N.pl3        1 ATP700   0.0000
    23 C8          33.5780    19.8490    38.9440 C.2          1 ATP700   0.0000
    24 N7          33.1870    20.7120    39.8220 N.2          1 ATP700   0.0000
    25 C5          31.8900    20.8040    39.6090 C.ar         1 ATP700   0.0000
    26 C6          30.9830    21.6620    40.1710 C.ar         1 ATP700   0.0000
    27 N6          31.3130    22.4950    41.1650 N.pl3        1 ATP700   0.0000
    28 N1          29.6950    21.5240    39.7810 N.ar         1 ATP700   0.0000
    29 C2          29.4090    20.6350    38.7800 C.ar         1 ATP700   0.0000
    30 N3          30.2170    19.7760    38.1680 N.ar         1 ATP700   0.0000
    31 C4          31.4590    19.9260    38.6490 C.ar         1 ATP700   0.0000
    32 H5'1        35.8716    17.4072    35.9824 H            1 ATP700   0.0000
    33 H5'2        35.1530    18.2885    37.1544 H            1 ATP700   0.0000
    34 H4'         34.1005    15.6605    36.5534 H            1 ATP700   0.0000
    35 H3'         34.0190    17.0578    34.4668 H            1 ATP700   0.0000
    36 H5          31.3943    17.0528    34.7841 H            1 ATP700   0.0000
    37 H2'         33.7443    19.2530    35.5079 H            1 ATP700   0.0000
    38 H7          31.8603    19.5994    34.3606 H            1 ATP700   0.0000
    39 H1'         31.6952    18.1909    37.0280 H            1 ATP700   0.0000
    40 H9          34.5430    19.6103    38.8351 H            1 ATP700   0.0000
    41 H10         30.6249    23.1086    41.5523 H            1 ATP700   0.0000
    42 H11         32.2477    22.5038    41.5204 H            1 ATP700   0.0000
    43 H12         28.4597    20.6317    38.4656 H            1 ATP700   0.0000
@<TRIPOS>BOND
     1    1    2      ar
     2    1    3      ar
     3    1    4      ar
     4    1    8       1
     5    5    6      ar
     6    5    7      ar
     7    5    8       1
     8    5   12       1
     9    9   10      ar
    10    9   11      ar
    11    9   12       1
    12    9   13       1
    13   13   14       1
    14   14   15       1
    15   15   16       1
    16   15   17       1
    17   16   21       1
    18   17   18       1
    19   17   19       1
    20   19   20       1
    21   19   21       1
    22   21   22       1
    23   22   23       1
    24   22   31       1
    25   23   24       2
    26   24   25       1
    27   25   26      ar
    28   25   31      ar
    29   26   27       1
    30   26   28      ar
    31   28   29      ar
    32   29   30      ar
    33   30   31      ar
    34   29   43       1
    35   27   42       1
    36   27   41       1
    37   23   40       1
    38   14   32       1
    39   14   33       1
    40   15   34       1
    41   17   35       1
    42   18   36       1
    43   19   37       1
    44   20   38       1
    45   21   39       1
@<TRIPOS>SUBSTRUCTURE
     1 ATP700      1 GROUP             4 A     ATP     0 **** ATP A 700
