@<TRIPOS>MOLECULE
2dc1_NAD_2_ligand
   70    74     1     0     0
SMALL
NO_CHARGES


@<TRIPOS>ATOM
     1 PA          31.4890    20.6160     2.2100 P.3          1 NAD1242   0.0000
     2 O1A         30.3900    19.8720     1.5810 O.co2        1 NAD1242   0.0000
     3 O2A         32.9990    20.3050     1.6780 O.co2        1 NAD1242  -1.0000
     4 O5B         31.2460    22.1740     2.0970 O.3          1 NAD1242   0.0000
     5 C5B         32.1610    23.2010     2.5460 C.3          1 NAD1242   0.0000
     6 C4B         31.9600    24.4450     1.7290 C.3          1 NAD1242   0.0000
     7 O4B         32.7880    25.4540     2.2960 O.3          1 NAD1242   0.0000
     8 C3B         32.5170    24.2870     0.3060 C.3          1 NAD1242   0.0000
     9 O3B         31.6700    24.6990    -0.7490 O.3          1 NAD1242   0.0000
    10 C2B         33.7450    25.1480     0.2800 C.3          1 NAD1242   0.0000
    11 O2B         34.1480    25.7500    -0.9490 O.3          1 NAD1242   0.0000
    12 C1B         33.3980    26.1940     1.3080 C.3          1 NAD1242   0.0000
    13 N9A         34.5820    26.7760     1.9440 N.pl3        1 NAD1242   0.0000
    14 C8A         35.5600    26.1730     2.6400 C.2          1 NAD1242   0.0000
    15 N7A         36.4280    27.1280     3.1110 N.2          1 NAD1242   0.0000
    16 C5A         35.9910    28.3310     2.6850 C.ar         1 NAD1242   0.0000
    17 C6A         36.4560    29.6150     2.8540 C.ar         1 NAD1242   0.0000
    18 N6A         37.5460    29.8080     3.5900 N.pl3        1 NAD1242   0.0000
    19 N1A         35.7040    30.6560     2.3220 N.ar         1 NAD1242   0.0000
    20 C2A         34.5500    30.4160     1.5870 C.ar         1 NAD1242   0.0000
    21 N3A         34.1050    29.1190     1.3810 N.ar         1 NAD1242   0.0000
    22 C4A         34.8160    28.1030     1.9530 C.ar         1 NAD1242   0.0000
    23 O3          31.5570    20.3820     3.7000 O.3          1 NAD1242   0.0000
    24 PN          30.2410    20.1260     4.7240 P.3          1 NAD1242   0.0000
    25 O1N         30.0150    18.7310     4.8820 O.co2        1 NAD1242   0.0000
    26 O2N         29.2800    21.2370     4.5810 O.co2        1 NAD1242  -1.0000
    27 O5D         30.9370    20.6470     6.0240 O.3          1 NAD1242   0.0000
    28 C5D         32.1590    20.4600     6.4290 C.3          1 NAD1242   0.0000
    29 C4D         32.5380    21.6330     7.3590 C.3          1 NAD1242   0.0000
    30 O4D         31.9500    21.6590     8.6480 O.3          1 NAD1242   0.0000
    31 C3D         33.9480    21.0780     7.4670 C.3          1 NAD1242   0.0000
    32 O3D         34.9000    22.0640     7.7010 O.3          1 NAD1242   0.0000
    33 C2D         33.9770    20.2890     8.6990 C.3          1 NAD1242   0.0000
    34 O2D         35.3080    20.6670     9.1130 O.3          1 NAD1242   0.0000
    35 C1D         32.7560    20.8940     9.5340 C.3          1 NAD1242   0.0000
    36 N1N         32.0440    19.7690    10.1690 N.ar         1 NAD1242   1.0000
    37 C2N         31.9430    19.7510    11.5260 C.ar         1 NAD1242   0.0000
    38 C3N         31.3080    18.7580    12.2620 C.ar         1 NAD1242   0.0000
    39 C7N         31.2090    18.8070    13.7750 C.2          1 NAD1242   0.0000
    40 O7N         30.5610    17.6520    14.4660 O.2          1 NAD1242   0.0000
    41 N7N         31.6270    19.9110    14.4930 N.am         1 NAD1242   0.0000
    42 C4N         30.7160    17.6810    11.5080 C.ar         1 NAD1242   0.0000
    43 C5N         30.8420    17.6940    10.1290 C.ar         1 NAD1242   0.0000
    44 C6N         31.4950    18.7540     9.4460 C.ar         1 NAD1242   0.0000
    45 H5B1        33.1017    22.8796     2.4374 H            1 NAD1242   0.0000
    46 H5B2        31.9872    23.4038     3.5097 H            1 NAD1242   0.0000
    47 H4B         30.9997    24.7237     1.7171 H            1 NAD1242   0.0000
    48 H3B         32.7816    23.3336     0.1612 H            1 NAD1242   0.0000
    49 H5          31.4556    25.6701    -0.6444 H            1 NAD1242   0.0000
    50 H2B         34.5114    24.6091     0.6296 H            1 NAD1242   0.0000
    51 H7          33.4186    26.3472    -1.2826 H            1 NAD1242   0.0000
    52 H1B         32.7898    26.8957     0.9369 H            1 NAD1242   0.0000
    53 H8A         35.6428    25.1879     2.7909 H            1 NAD1242   0.0000
    54 H6A1        37.9006    30.7332     3.7254 H            1 NAD1242   0.0000
    55 H6A2        38.0114    29.0280     4.0083 H            1 NAD1242   0.0000
    56 H2A         34.0366    31.1839     1.2038 H            1 NAD1242   0.0000
    57 H5D1        32.7771    20.4365     5.6433 H            1 NAD1242   0.0000
    58 H5D2        32.2224    19.5963     6.9290 H            1 NAD1242   0.0000
    59 H4D         32.5040    22.5201     6.8987 H            1 NAD1242   0.0000
    60 H3D         34.1848    20.5220     6.6703 H            1 NAD1242   0.0000
    61 H17         34.6903    22.5329     8.5590 H            1 NAD1242   0.0000
    62 H2D         33.8858    19.3070     8.5336 H            1 NAD1242   0.0000
    63 H19         35.9659    20.3916     8.4121 H            1 NAD1242   0.0000
    64 H1D         33.1160    21.4953    10.2474 H            1 NAD1242   0.0000
    65 H2N         32.3565    20.5086    12.0310 H            1 NAD1242   0.0000
    66 H7N1        31.5506    19.9173    15.4901 H            1 NAD1242   0.0000
    67 H7N2        32.0060    20.7038    14.0156 H            1 NAD1242   0.0000
    68 H4N         30.2259    16.9419    11.9701 H            1 NAD1242   0.0000
    69 H5N         30.4624    16.9355     9.5992 H            1 NAD1242   0.0000
    70 H6N         31.5509    18.7551     8.4476 H            1 NAD1242   0.0000
@<TRIPOS>BOND
     1    1    2      ar
     2    1    3      ar
     3    1    4       1
     4    1   23       1
     5    4    5       1
     6    5    6       1
     7    6    7       1
     8    6    8       1
     9    7   12       1
    10    8    9       1
    11    8   10       1
    12   10   11       1
    13   10   12       1
    14   12   13       1
    15   13   14       1
    16   13   22       1
    17   14   15       2
    18   15   16       1
    19   16   17      ar
    20   16   22      ar
    21   17   18       1
    22   17   19      ar
    23   19   20      ar
    24   20   21      ar
    25   21   22      ar
    26   23   24       1
    27   24   25      ar
    28   24   26      ar
    29   24   27       1
    30   27   28       1
    31   28   29       1
    32   29   30       1
    33   29   31       1
    34   30   35       1
    35   31   32       1
    36   31   33       1
    37   33   34       1
    38   33   35       1
    39   35   36       1
    40   36   37      ar
    41   36   44      ar
    42   37   38      ar
    43   38   39       1
    44   38   42      ar
    45   39   40       2
    46   39   41      am
    47   42   43      ar
    48   43   44      ar
    49   44   70       1
    50    5   45       1
    51    5   46       1
    52    6   47       1
    53    8   48       1
    54    9   49       1
    55   10   50       1
    56   11   51       1
    57   12   52       1
    58   14   53       1
    59   18   54       1
    60   18   55       1
    61   20   56       1
    62   43   69       1
    63   28   57       1
    64   28   58       1
    65   29   59       1
    66   31   60       1
    67   32   61       1
    68   33   62       1
    69   34   63       1
    70   35   64       1
    71   37   65       1
    72   41   66       1
    73   41   67       1
    74   42   68       1
@<TRIPOS>SUBSTRUCTURE
     1 NAD1242     1 GROUP             4 B     NAD     0 **** NAD B1242
