@<TRIPOS>MOLECULE
3bxx_QUE_6_ligand
   32    34     1     0     0
SMALL
NO_CHARGES


@<TRIPOS>ATOM
     1 C1         -67.4440    23.3340    26.8560 C.ar         1 QUE341   0.0000
     2 C2         -66.6640    22.8200    25.8270 C.ar         1 QUE341   0.0000
     3 C3         -65.1660    22.8220    25.8970 C.ar         1 QUE341   0.0000
     4 C4         -64.5570    23.4050    27.1270 C.ar         1 QUE341   0.0000
     5 C5         -65.4250    23.9040    28.1000 C.ar         1 QUE341   0.0000
     6 C6         -66.8170    23.8710    27.9680 C.ar         1 QUE341   0.0000
     7 C9         -64.2470    22.2790    24.8430 C.2          1 QUE341   0.0000
     8 C10        -62.7760    22.3760    25.0880 C.2          1 QUE341   0.0000
     9 C11        -62.3100    22.9750    26.3670 C.2          1 QUE341   0.0000
    10 C14        -60.8720    23.1240    26.6750 C.ar         1 QUE341   0.0000
    11 C15        -60.3890    24.3990    26.4030 C.ar         1 QUE341   0.0000
    12 C16        -59.0600    24.7290    26.6380 C.ar         1 QUE341   0.0000
    13 C17        -58.2100    23.7690    27.1610 C.ar         1 QUE341   0.0000
    14 C18        -58.7040    22.4040    27.4680 C.ar         1 QUE341   0.0000
    15 C19        -60.0500    22.1320    27.2030 C.ar         1 QUE341   0.0000
    16 O12        -63.1940    23.4520    27.3060 O.2          1 QUE341   0.0000
    17 O13        -64.6900    21.7510    23.7880 O.2          1 QUE341   0.0000
    18 O23        -57.8580    21.4660    27.9950 O.3          1 QUE341   0.0000
    19 O24        -56.9250    24.0800    27.3930 O.3          1 QUE341   0.0000
    20 O27        -61.8530    21.9060    24.2080 O.3          1 QUE341   0.0000
    21 O29        -67.5670    24.3870    28.9760 O.3          1 QUE341   0.0000
    22 O30        -67.3140    22.3010    24.7500 O.3          1 QUE341   0.0000
    23 H1         -68.4420    23.3164    26.7945 H            1 QUE341   0.0000
    24 H2         -65.0336    24.3032    28.9291 H            1 QUE341   0.0000
    25 H3         -61.0088    25.0904    26.0318 H            1 QUE341   0.0000
    26 H4         -58.7218    25.6473    26.4323 H            1 QUE341   0.0000
    27 H5         -60.4226    21.2237    27.3930 H            1 QUE341   0.0000
    28 H6         -58.1955    20.5473    28.2003 H            1 QUE341   0.0000
    29 H7         -56.5882    24.9991    27.1883 H            1 QUE341   0.0000
    30 H8         -60.8779    21.9920    24.4126 H            1 QUE341   0.0000
    31 H9         -67.1213    24.7764    29.7820 H            1 QUE341   0.0000
    32 H10        -66.7921    21.9204    23.9866 H            1 QUE341   0.0000
@<TRIPOS>BOND
     1    1    2      ar
     2    1    6      ar
     3    2    3      ar
     4    2   22       1
     5    3    4      ar
     6    3    7       1
     7    4    5      ar
     8    4   16       1
     9    5    6      ar
    10    6   21       1
    11    7    8       1
    12    7   17       2
    13    8    9       2
    14    8   20       1
    15    9   10       1
    16    9   16       1
    17   10   11      ar
    18   10   15      ar
    19   11   12      ar
    20   12   13      ar
    21   13   14      ar
    22   13   19       1
    23   14   15      ar
    24   14   18       1
    25    1   23       1
    26    5   24       1
    27   11   25       1
    28   12   26       1
    29   15   27       1
    30   18   28       1
    31   19   29       1
    32   20   30       1
    33   21   31       1
    34   22   32       1
@<TRIPOS>SUBSTRUCTURE
     1 QUE341      1 GROUP             4 D     QUE     0 **** QUE D 341
