@<TRIPOS>MOLECULE
1td2_PXL_1_ligand
   21    21     1     0     0
SMALL
NO_CHARGES


@<TRIPOS>ATOM
     1 OP4         -1.8250    -0.3500     7.3430 O.3          1 PXL289   0.0000
     2 C5A         -1.0820    -0.7610     6.2030 C.3          1 PXL289   0.0000
     3 C5           0.0090    -1.7880     6.5610 C.ar         1 PXL289   0.0000
     4 C6           0.2520    -2.1570     7.9320 C.ar         1 PXL289   0.0000
     5 N1           1.2800    -3.1140     8.2380 N.ar         1 PXL289   0.0000
     6 C2           2.0730    -3.7100     7.2070 C.ar         1 PXL289   0.0000
     7 C3           1.8440    -3.3620     5.8230 C.ar         1 PXL289   0.0000
     8 C4           0.8100    -2.3850     5.4990 C.ar         1 PXL289   0.0000
     9 C4A          0.5300    -1.9730     4.0480 C.2          1 PXL289   0.0000
    10 O4A          1.2210    -2.4980     3.1580 O.2          1 PXL289   0.0000
    11 O3           2.6220    -3.9550     4.8190 O.3          1 PXL289   0.0000
    12 C2A          3.1560    -4.7180     7.5780 C.3          1 PXL289   0.0000
    13 HP4         -1.3867     0.4480     7.7566 H            1 PXL289   0.0000
    14 H5A1        -0.6475     0.0419     5.7948 H            1 PXL289   0.0000
    15 H5A2        -1.7084    -1.1735     5.5415 H            1 PXL289   0.0000
    16 H4          -0.2911    -1.7499     8.6664 H            1 PXL289   0.0000
    17 H4A         -0.1820    -1.3068     3.8264 H            1 PXL289   0.0000
    18 H6           2.4669    -3.7171     3.8602 H            1 PXL289   0.0000
    19 H2A1         3.6136    -5.0363     6.7478 H            1 PXL289   0.0000
    20 H2A2         3.8244    -4.2824     8.1809 H            1 PXL289   0.0000
    21 H2A3         2.7400    -5.4962     8.0485 H            1 PXL289   0.0000
@<TRIPOS>BOND
     1    1    2       1
     2    2    3       1
     3    3    4      ar
     4    3    8      ar
     5    4    5      ar
     6    5    6      ar
     7    6    7      ar
     8    6   12       1
     9    7    8      ar
    10    7   11       1
    11    8    9       1
    12    9   10       2
    13    1   13       1
    14    2   14       1
    15    2   15       1
    16    4   16       1
    17    9   17       1
    18   11   18       1
    19   12   19       1
    20   12   20       1
    21   12   21       1
@<TRIPOS>SUBSTRUCTURE
     1 PXL289      1 GROUP             4 B     PXL     0 **** PXL B 289
