@<TRIPOS>MOLECULE
4ith_RCM_2_ligand
   31    33     1     0     0
SMALL
NO_CHARGES


@<TRIPOS>ATOM
     1 O2          -7.9860   -60.3300    26.4790 O.2          1 RCM307   0.0000
     2 C14         -7.4800   -60.8270    27.5630 C.2          1 RCM307   0.0000
     3 N3          -6.2060   -61.5810    27.6110 N.am         1 RCM307   0.0000
     4 C17         -5.1070   -60.9530    26.7980 C.3          1 RCM307   0.0000
     5 C12         -6.0030   -61.6640    29.0720 C.2          1 RCM307   0.0000
     6 O1          -4.9240   -62.0370    29.6830 O.2          1 RCM307   0.0000
     7 N2          -8.1600   -60.6850    28.8690 N.am         1 RCM307   0.0000
     8 C11         -7.2170   -61.3430    29.8370 C.3          1 RCM307   0.0000
     9 C10         -6.8850   -60.4510    30.9910 C.3          1 RCM307   0.0000
    10 C7          -6.2560   -59.1480    30.6060 C.2          1 RCM307   0.0000
    11 C2          -6.9360   -58.0330    30.1890 C.ar         1 RCM307   0.0000
    12 C8          -4.9010   -58.8400    30.6740 C.2          1 RCM307   0.0000
    13 N1          -4.6920   -57.5600    30.2830 N.pl3        1 RCM307   0.0000
    14 C3          -5.9870   -57.0670    29.9830 C.ar         1 RCM307   0.0000
    15 C4          -6.4100   -55.8320    29.5360 C.ar         1 RCM307   0.0000
    16 CL1         -5.4450   -54.7400    29.2860 Cl           1 RCM307   0.0000
    17 C5          -7.7630   -55.6200    29.3140 C.ar         1 RCM307   0.0000
    18 C6          -8.6840   -56.6240    29.5400 C.ar         1 RCM307   0.0000
    19 C1          -8.2810   -57.8540    29.9800 C.ar         1 RCM307   0.0000
    20 H1          -4.2785   -61.5080    26.8724 H            1 RCM307   0.0000
    21 H2          -5.3888   -60.9016    25.8399 H            1 RCM307   0.0000
    22 H3          -4.9231   -60.0319    27.1412 H            1 RCM307   0.0000
    23 H4          -9.0407   -60.2526    29.0625 H            1 RCM307   0.0000
    24 H5          -7.6278   -62.1885    30.1782 H            1 RCM307   0.0000
    25 H6          -6.2510   -60.9390    31.5909 H            1 RCM307   0.0000
    26 H7          -7.7304   -60.2552    31.4880 H            1 RCM307   0.0000
    27 H8          -4.1847   -59.4723    30.9690 H            1 RCM307   0.0000
    28 H9          -3.8210   -57.0728    30.2201 H            1 RCM307   0.0000
    29 H10         -8.0755   -54.7285    28.9860 H            1 RCM307   0.0000
    30 H11         -9.6556   -56.4495    29.3802 H            1 RCM307   0.0000
    31 H12         -8.9371   -58.5910    30.1425 H            1 RCM307   0.0000
@<TRIPOS>BOND
     1    1    2       2
     2    2    3      am
     3    2    7      am
     4    3    4       1
     5    3    5      am
     6    5    6       2
     7    5    8       1
     8    7    8       1
     9    8    9       1
    10    9   10       1
    11   10   11       1
    12   10   12       2
    13   11   14      ar
    14   11   19      ar
    15   12   13       1
    16   13   14       1
    17   14   15      ar
    18   15   16       1
    19   15   17      ar
    20   17   18      ar
    21   18   19      ar
    22    4   20       1
    23    4   21       1
    24    4   22       1
    25    7   23       1
    26    8   24       1
    27    9   25       1
    28    9   26       1
    29   12   27       1
    30   13   28       1
    31   17   29       1
    32   18   30       1
    33   19   31       1
@<TRIPOS>SUBSTRUCTURE
     1 RCM307      1 GROUP             4 B     RCM     0 **** RCM B 307
