@<TRIPOS>MOLECULE
3som_5AD_13_ligand
   31    33     1     0     0
SMALL
NO_CHARGES


@<TRIPOS>ATOM
     1 N1          78.7440    10.1880   356.4060 N.ar         1 5AD401   0.0000
     2 C2          78.9400    10.8360   357.5840 C.ar         1 5AD401   0.0000
     3 N3          77.9320    11.3700   358.3220 N.ar         1 5AD401   0.0000
     4 C4          76.6610    11.3470   357.8920 C.ar         1 5AD401   0.0000
     5 N9          75.5150    11.8060   358.3700 N.pl3        1 5AD401   0.0000
     6 C8          74.5480    11.4890   357.4620 C.2          1 5AD401   0.0000
     7 N7          75.0330    10.8070   356.3870 N.2          1 5AD401   0.0000
     8 C5          76.3570    10.6860   356.6040 C.ar         1 5AD401   0.0000
     9 C6          77.4910    10.0660   355.8770 C.ar         1 5AD401   0.0000
    10 N6          77.2740     9.4160   354.7080 N.pl3        1 5AD401   0.0000
    11 C1'         75.3040    12.6760   359.5690 C.3          1 5AD401   0.0000
    12 C2'         76.0260    12.2880   360.8510 C.3          1 5AD401   0.0000
    13 C3'         77.0480    13.3920   361.1080 C.3          1 5AD401   0.0000
    14 C4'         76.9290    14.3440   359.9330 C.3          1 5AD401   0.0000
    15 C5'         76.8500    15.7920   360.3620 C.3          1 5AD401   0.0000
    16 O4'         75.7150    14.0050   359.2670 O.3          1 5AD401   0.0000
    17 O2'         75.0750    12.2870   361.9180 O.3          1 5AD401   0.0000
    18 O3'         76.8340    14.1020   362.3260 O.3          1 5AD401   0.0000
    19 H1          79.8756    10.9246   357.9259 H            1 5AD401   0.0000
    20 H2          73.5843    11.7317   357.5736 H            1 5AD401   0.0000
    21 H3          76.3463     9.3409   354.3424 H            1 5AD401   0.0000
    22 H4          78.0416     9.0114   354.2109 H            1 5AD401   0.0000
    23 H1'         74.3234    12.6958   359.7640 H            1 5AD401   0.0000
    24 H2'         76.4704    11.3967   360.7610 H            1 5AD401   0.0000
    25 H3'         77.9655    12.9944   361.1167 H            1 5AD401   0.0000
    26 H4'         77.7031    14.2158   359.3130 H            1 5AD401   0.0000
    27 H5'1        76.7730    16.3755   359.5535 H            1 5AD401   0.0000
    28 H5'2        76.0486    15.9235   360.9455 H            1 5AD401   0.0000
    29 H5'3        77.6761    16.0345   360.8706 H            1 5AD401   0.0000
    30 H12         75.5314    12.0338   362.7710 H            1 5AD401   0.0000
    31 H13         77.5364    14.8063   362.4291 H            1 5AD401   0.0000
@<TRIPOS>BOND
     1    1    2      ar
     2    1    9      ar
     3    2    3      ar
     4    3    4      ar
     5    4    5       1
     6    4    8      ar
     7    5    6       1
     8    5   11       1
     9    6    7       2
    10    7    8       1
    11    8    9      ar
    12    9   10       1
    13   11   12       1
    14   11   16       1
    15   12   13       1
    16   12   17       1
    17   13   14       1
    18   13   18       1
    19   14   15       1
    20   14   16       1
    21    2   19       1
    22    6   20       1
    23   10   21       1
    24   10   22       1
    25   11   23       1
    26   12   24       1
    27   13   25       1
    28   14   26       1
    29   15   27       1
    30   15   28       1
    31   15   29       1
    32   17   30       1
    33   18   31       1
@<TRIPOS>SUBSTRUCTURE
     1 5AD401      1 GROUP             4 K     5AD     0 **** 5AD K 401
