@<TRIPOS>MOLECULE
1ger_FAD_2_ligand
   84    89     1     0     0
SMALL
NO_CHARGES


@<TRIPOS>ATOM
     1 PA          51.9450   -15.1270     2.6700 P.3          1 FAD451   0.0000
     2 O1A         51.6800   -16.3170     1.8330 O.co2        1 FAD451   0.0000
     3 O2A         51.3640   -13.8830     2.1810 O.co2        1 FAD451  -1.0000
     4 O5B         53.4760   -14.9600     2.6090 O.3          1 FAD451   0.0000
     5 C5B         54.4480   -15.9970     3.0690 C.3          1 FAD451   0.0000
     6 C4B         55.7810   -15.7040     2.3920 C.3          1 FAD451   0.0000
     7 O4B         56.8080   -16.5600     2.9220 O.3          1 FAD451   0.0000
     8 C3B         55.7330   -15.9090     0.8590 C.3          1 FAD451   0.0000
     9 O3B         56.0600   -14.6700     0.2130 O.3          1 FAD451   0.0000
    10 C2B         56.7970   -16.9930     0.6420 C.3          1 FAD451   0.0000
    11 O2B         57.5260   -16.8750    -0.5740 O.3          1 FAD451   0.0000
    12 C1B         57.7190   -16.7840     1.8530 C.3          1 FAD451   0.0000
    13 N9A         58.4940   -17.9860     2.1460 N.pl3        1 FAD451   0.0000
    14 C8A         58.0370   -19.2570     2.3700 C.2          1 FAD451   0.0000
    15 N7A         58.9500   -20.0510     2.8450 N.2          1 FAD451   0.0000
    16 C5A         60.1130   -19.3120     2.9430 C.ar         1 FAD451   0.0000
    17 C6A         61.3940   -19.5960     3.4010 C.ar         1 FAD451   0.0000
    18 N6A         61.6590   -20.7260     4.0640 N.pl3        1 FAD451   0.0000
    19 N1A         62.3120   -18.6500     3.2260 N.ar         1 FAD451   0.0000
    20 C2A         61.9820   -17.4820     2.7070 C.ar         1 FAD451   0.0000
    21 N3A         60.7910   -17.0190     2.3570 N.ar         1 FAD451   0.0000
    22 C4A         59.8500   -18.0120     2.4440 C.ar         1 FAD451   0.0000
    23 N1          42.8810   -12.4330     2.0220 N.2          1 FAD451   0.0000
    24 C2          42.1930   -11.3080     2.2210 C.2          1 FAD451   0.0000
    25 O2          42.1310   -10.7900     3.3160 O.2          1 FAD451   0.0000
    26 N3          41.5220   -10.6910     1.2160 N.pl3        1 FAD451   0.0000
    27 C4          41.5270   -11.1910    -0.0720 C.2          1 FAD451   0.0000
    28 O4          40.9490   -10.5680    -0.9490 O.2          1 FAD451   0.0000
    29 C4X         42.2110   -12.4460    -0.2970 C.2          1 FAD451   0.0000
    30 N5          42.1830   -13.0210    -1.5150 N.2          1 FAD451   0.0000
    31 C5X         42.9570   -14.1070    -1.7220 C.ar         1 FAD451   0.0000
    32 C6          42.9520   -14.6340    -3.0190 C.ar         1 FAD451   0.0000
    33 C7          43.7130   -15.7720    -3.3100 C.ar         1 FAD451   0.0000
    34 C7M         43.6680   -16.3760    -4.6970 C.3          1 FAD451   0.0000
    35 C8          44.5650   -16.3250    -2.2880 C.ar         1 FAD451   0.0000
    36 C8M         45.4460   -17.5120    -2.6070 C.3          1 FAD451   0.0000
    37 C9          44.5920   -15.7810    -1.0100 C.ar         1 FAD451   0.0000
    38 C9A         43.7890   -14.6580    -0.7020 C.ar         1 FAD451   0.0000
    39 N10         43.7190   -14.1130     0.5420 N.pl3        1 FAD451   0.0000
    40 C10         42.9610   -12.9980     0.7770 C.2          1 FAD451   0.0000
    41 C1'         44.3970   -14.7540     1.6910 C.3          1 FAD451   0.0000
    42 C2'         45.7550   -14.0470     1.9340 C.3          1 FAD451   0.0000
    43 O2'         46.4130   -13.9610     0.6750 O.3          1 FAD451   0.0000
    44 C3'         46.5880   -14.7800     2.9560 C.3          1 FAD451   0.0000
    45 O3'         45.7770   -15.0400     4.1060 O.3          1 FAD451   0.0000
    46 C4'         47.8630   -13.9660     3.3850 C.3          1 FAD451   0.0000
    47 O4'         48.7240   -13.7420     2.2450 O.3          1 FAD451   0.0000
    48 C5'         48.5710   -14.7690     4.4300 C.3          1 FAD451   0.0000
    49 O5'         49.7900   -14.0770     4.9060 O.3          1 FAD451   0.0000
    50 P           51.0060   -14.8250     5.4220 P.3          1 FAD451   0.0000
    51 O1P         51.9090   -13.7920     5.9970 O.co2        1 FAD451   0.0000
    52 O2P         50.6320   -15.8890     6.3890 O.co2        1 FAD451  -1.0000
    53 O3P         51.6280   -15.4770     4.1510 O.3          1 FAD451   0.0000
    54 H5B1        54.1254   -16.9071     2.8091 H            1 FAD451   0.0000
    55 H5B2        54.5519   -15.9513     4.0625 H            1 FAD451   0.0000
    56 H4B         56.0308   -14.7538     2.5785 H            1 FAD451   0.0000
    57 H3B         54.8316   -16.2329     0.5716 H            1 FAD451   0.0000
    58 H5          56.9781   -14.3835     0.4868 H            1 FAD451   0.0000
    59 H2B         56.3724   -17.8969     0.6939 H            1 FAD451   0.0000
    60 H7          58.0012   -15.9954    -0.5937 H            1 FAD451   0.0000
    61 H1B         58.3171   -15.9940     1.7181 H            1 FAD451   0.0000
    62 H8A         57.0970   -19.5450     2.1869 H            1 FAD451   0.0000
    63 H6A1        62.5878   -20.9112     4.3851 H            1 FAD451   0.0000
    64 H6A2        60.9285   -21.3861     4.2389 H            1 FAD451   0.0000
    65 H2A         62.7445   -16.8530     2.5554 H            1 FAD451   0.0000
    66 H13         41.0114    -9.8539     1.4123 H            1 FAD451   0.0000
    67 H14         42.4065   -14.1987    -3.7352 H            1 FAD451   0.0000
    68 H7M1        44.2657   -17.1770    -4.7313 H            1 FAD451   0.0000
    69 H7M2        42.7304   -16.6503    -4.9109 H            1 FAD451   0.0000
    70 H7M3        43.9781   -15.6998    -5.3653 H            1 FAD451   0.0000
    71 H8M1        45.9684   -17.7675    -1.7935 H            1 FAD451   0.0000
    72 H8M2        44.8764   -18.2826    -2.8930 H            1 FAD451   0.0000
    73 H8M3        46.0757   -17.2708    -3.3454 H            1 FAD451   0.0000
    74 H21         45.1792   -16.1834    -0.3077 H            1 FAD451   0.0000
    75 H1'1        44.5536   -15.7212     1.4910 H            1 FAD451   0.0000
    76 H1'2        43.8249   -14.6707     2.5070 H            1 FAD451   0.0000
    77 H2'         45.5793   -13.1209     2.2680 H            1 FAD451   0.0000
    78 H25         47.4030   -13.9844     0.8140 H            1 FAD451   0.0000
    79 H3'         46.8806   -15.6528     2.5655 H            1 FAD451   0.0000
    80 H27         46.0871   -15.8810     4.5493 H            1 FAD451   0.0000
    81 H4'         47.5840   -13.0867     3.7711 H            1 FAD451   0.0000
    82 H29         49.6183   -14.1554     2.4164 H            1 FAD451   0.0000
    83 H5'1        48.8292   -15.6536     4.0416 H            1 FAD451   0.0000
    84 H5'2        47.9544   -14.9121     5.2041 H            1 FAD451   0.0000
@<TRIPOS>BOND
     1    1    2      ar
     2    1    3      ar
     3    1    4       1
     4    1   53       1
     5    4    5       1
     6    5    6       1
     7    6    7       1
     8    6    8       1
     9    7   12       1
    10    8    9       1
    11    8   10       1
    12   10   11       1
    13   10   12       1
    14   12   13       1
    15   13   14       1
    16   13   22       1
    17   14   15       2
    18   15   16       1
    19   16   17      ar
    20   16   22      ar
    21   17   18       1
    22   17   19      ar
    23   19   20      ar
    24   20   21      ar
    25   21   22      ar
    26   23   24       1
    27   23   40       2
    28   24   25       2
    29   24   26       1
    30   26   27       1
    31   27   28       2
    32   27   29       1
    33   29   30       2
    34   29   40       1
    35   30   31       1
    36   31   32      ar
    37   31   38      ar
    38   32   33      ar
    39   33   34       1
    40   33   35      ar
    41   35   36       1
    42   35   37      ar
    43   37   38      ar
    44   38   39       1
    45   39   40       1
    46   39   41       1
    47   41   42       1
    48   42   43       1
    49   42   44       1
    50   44   45       1
    51   44   46       1
    52   46   47       1
    53   46   48       1
    54   48   49       1
    55   49   50       1
    56   50   51      ar
    57   50   52      ar
    58   50   53       1
    59   48   84       1
    60    5   54       1
    61    5   55       1
    62    6   56       1
    63    8   57       1
    64    9   58       1
    65   10   59       1
    66   11   60       1
    67   12   61       1
    68   14   62       1
    69   18   63       1
    70   18   64       1
    71   20   65       1
    72   26   66       1
    73   32   67       1
    74   34   68       1
    75   34   69       1
    76   34   70       1
    77   36   71       1
    78   36   72       1
    79   36   73       1
    80   37   74       1
    81   41   75       1
    82   41   76       1
    83   42   77       1
    84   43   78       1
    85   44   79       1
    86   45   80       1
    87   46   81       1
    88   47   82       1
    89   48   83       1
@<TRIPOS>SUBSTRUCTURE
     1 FAD451      1 GROUP             4 B     FAD     0 **** FAD B 451
