@<TRIPOS>MOLECULE
./coach420/1kgz/ligand.pdb
 22 19 0 0 0
SMALL
GASTEIGER

@<TRIPOS>ATOM
      1 MN         27.2570   14.4320   54.3120 Mn    500  MN500       0.0000
      2  C2        22.0740   13.5330   51.5000 C.3   700  PRP700      0.0000
      3  C3        22.4140   12.3480   50.8210 C.3   700  PRP700      0.0000
      4  C4        23.2150   12.7920   49.7340 C.3   700  PRP700      0.0000
      5  C5        22.7390   12.7320   48.3280 C.3   700  PRP700      0.0000
      6  O1        24.1740   14.3740   52.4480 O.2   700  PRP700      0.0000
      7  O2        21.7750   13.3350   52.8820 O.3   700  PRP700      0.0000
      8  O3        23.1560   11.4990   51.7370 O.3   700  PRP700      0.0000
      9  O4        23.6910   14.2050   50.1030 O.3   700  PRP700      0.0000
     10  O5        23.3090   11.6530   47.5600 O.3   700  PRP700      0.0000
     11  P         22.9220   10.0780   47.7470 P.3   700  PRP700      0.0000
     12  O1P       21.4910    9.9880   48.2540 O.3   700  PRP700      0.0000
     13  O2P       23.1190    9.3730   46.4030 O.2   700  PRP700      0.0000
     14  O3P       23.9280    9.6100   48.8080 O.3   700  PRP700      0.0000
     15  PA        24.2480   15.4250   53.6890 P.3   700  PRP700      0.0000
     16  O1A       25.0940   16.5750   53.3150 O.3   700  PRP700      0.0000
     17  O2A       22.8680   15.7660   54.1150 O.3   700  PRP700      0.0000
     18  O3A       25.0320   14.5610   54.7580 O.3   700  PRP700      0.0000
     19  PB        24.5840   13.1790   55.5130 P.3   700  PRP700      0.0000
     20  O1B       23.8210   12.3510   54.4920 O.2   700  PRP700      0.0000
     21  O2B       23.7440   13.5780   56.7080 O.3   700  PRP700      0.0000
     22  O3B       25.9000   12.5660   55.9050 O.3   700  PRP700      0.0000
@<TRIPOS>BOND
     1     2     3    1
     2     2     7    1
     3     3     4    1
     4     3     8    1
     5     4     5    1
     6     4     9    1
     7     5    10    1
     8     6    15    2
     9    10    11    1
    10    11    13    2
    11    11    12    1
    12    11    14    1
    13    15    16    1
    14    15    17    1
    15    15    18    1
    16    18    19    1
    17    19    20    2
    18    19    22    1
    19    19    21    1
