@<TRIPOS>MOLECULE
3njq_NJQ_2_ligand
   59    62     1     0     0
SMALL
NO_CHARGES


@<TRIPOS>ATOM
     1 C1           1.1620   -31.1060   -18.0700 C.3          1 NJQ198   0.0000
     2 C2           1.3920   -32.2610   -19.0350 C.ar         1 NJQ198   0.0000
     3 C3           1.3980   -31.9550   -20.3860 C.ar         1 NJQ198   0.0000
     4 C4           1.6360   -32.9330   -21.3300 C.ar         1 NJQ198   0.0000
     5 C5           1.8670   -34.2630   -20.9340 C.ar         1 NJQ198   0.0000
     6 C6           1.8720   -34.5550   -19.5730 C.ar         1 NJQ198   0.0000
     7 C7           1.6580   -33.5800   -18.6140 C.ar         1 NJQ198   0.0000
     8 N8           1.5610   -33.9090   -17.3190 N.am         1 NJQ198   0.0000
     9 C9           1.6070   -32.5870   -22.7920 C.2          1 NJQ198   0.0000
    10 O10          1.7180   -33.5350   -23.5840 O.co2        1 NJQ198   0.0000
    11 O11          1.4260   -31.4030   -23.1320 O.co2        1 NJQ198  -1.0000
    12 C15         -0.2510   -31.0110   -17.5890 C.ar         1 NJQ198   0.0000
    13 C18         -2.8420   -30.7820   -16.6410 C.ar         1 NJQ198   0.0000
    14 C19         -2.5700   -31.4650   -17.8000 C.ar         1 NJQ198   0.0000
    15 C20         -1.2770   -31.6090   -18.2780 C.ar         1 NJQ198   0.0000
    16 C21         -0.5110   -30.3060   -16.4260 C.ar         1 NJQ198   0.0000
    17 C22         -1.8080   -30.1970   -15.9500 C.ar         1 NJQ198   0.0000
    18 C28          2.1870   -34.8150   -16.5700 C.2          1 NJQ198   0.0000
    19 O29          3.1390   -35.5280   -16.8950 O.2          1 NJQ198   0.0000
    20 C30          1.6240   -34.9190   -15.1950 C.ar         1 NJQ198   0.0000
    21 C32          2.0910   -35.9140   -14.3550 C.ar         1 NJQ198   0.0000
    22 C33          1.5610   -35.9840   -13.0990 C.ar         1 NJQ198   0.0000
    23 C34          0.5660   -35.1040   -12.6980 C.ar         1 NJQ198   0.0000
    24 C35          0.1190   -34.1330   -13.5920 C.ar         1 NJQ198   0.0000
    25 N36          0.6550   -34.0760   -14.7930 N.ar         1 NJQ198   0.0000
    26 C37         -0.9990   -33.1280   -13.2380 C.3          1 NJQ198   0.0000
    27 C41         -2.4990   -33.5880   -13.2580 C.3          1 NJQ198   0.0000
    28 C44         -2.7870   -35.0130   -13.7910 C.3          1 NJQ198   0.0000
    29 C45         -3.4450   -32.4370   -13.7790 C.3          1 NJQ198   0.0000
    30 C47         -5.2370   -34.2820   -13.9530 C.3          1 NJQ198   0.0000
    31 C48         -4.9100   -32.7850   -14.1920 C.3          1 NJQ198   0.0000
    32 C57         -4.1030   -35.1500   -14.5520 C.3          1 NJQ198   0.0000
    33 H1           1.3975   -30.2523   -18.5345 H            1 NJQ198   0.0000
    34 H2           1.7595   -31.2302   -17.2778 H            1 NJQ198   0.0000
    35 H3           1.2279   -31.0146   -20.6806 H            1 NJQ198   0.0000
    36 H4           2.0236   -34.9803   -21.6129 H            1 NJQ198   0.0000
    37 H5           2.0350   -35.4969   -19.2794 H            1 NJQ198   0.0000
    38 H6           0.8864   -33.3684   -16.8163 H            1 NJQ198   0.0000
    39 H7          -3.7807   -30.7109   -16.3036 H            1 NJQ198   0.0000
    40 H8          -3.3260   -31.8702   -18.3141 H            1 NJQ198   0.0000
    41 H9          -1.0952   -32.1374   -19.1073 H            1 NJQ198   0.0000
    42 H10          0.2403   -29.8736   -15.9274 H            1 NJQ198   0.0000
    43 H11         -1.9911   -29.6937   -15.1055 H            1 NJQ198   0.0000
    44 H12          2.7924   -36.5595   -14.6574 H            1 NJQ198   0.0000
    45 H13          1.8938   -36.6778   -12.4603 H            1 NJQ198   0.0000
    46 H14          0.1749   -35.1658   -11.7797 H            1 NJQ198   0.0000
    47 H15         -0.9207   -32.3689   -13.8843 H            1 NJQ198   0.0000
    48 H16         -0.8098   -32.7990   -12.3128 H            1 NJQ198   0.0000
    49 H17         -2.7316   -33.6546   -12.2877 H            1 NJQ198   0.0000
    50 H18         -2.8102   -35.6392   -13.0117 H            1 NJQ198   0.0000
    51 H19         -2.0422   -35.2731   -14.4056 H            1 NJQ198   0.0000
    52 H20         -3.0027   -32.0356   -14.5810 H            1 NJQ198   0.0000
    53 H21         -3.5009   -31.7529   -13.0518 H            1 NJQ198   0.0000
    54 H22         -6.1036   -34.5105   -14.3967 H            1 NJQ198   0.0000
    55 H23         -5.3091   -34.4564   -12.9710 H            1 NJQ198   0.0000
    56 H24         -5.0300   -32.5787   -15.1631 H            1 NJQ198   0.0000
    57 H25         -5.5396   -32.2262   -13.6523 H            1 NJQ198   0.0000
    58 H26         -4.3876   -36.1083   -14.5277 H            1 NJQ198   0.0000
    59 H27         -3.9540   -34.8705   -15.5005 H            1 NJQ198   0.0000
@<TRIPOS>BOND
     1    1    2       1
     2    1   12       1
     3    2    3      ar
     4    2    7      ar
     5    3    4      ar
     6    4    5      ar
     7    4    9       1
     8    5    6      ar
     9    6    7      ar
    10    7    8       1
    11    8   18      am
    12    9   10      ar
    13    9   11      ar
    14   12   15      ar
    15   12   16      ar
    16   13   14      ar
    17   13   17      ar
    18   14   15      ar
    19   16   17      ar
    20   18   19       2
    21   18   20       1
    22   20   21      ar
    23   20   25      ar
    24   21   22      ar
    25   22   23      ar
    26   23   24      ar
    27   24   25      ar
    28   24   26       1
    29   26   27       1
    30   27   28       1
    31   27   29       1
    32   28   32       1
    33   29   31       1
    34   30   31       1
    35   30   32       1
    36    1   33       1
    37    1   34       1
    38    3   35       1
    39    5   36       1
    40    6   37       1
    41    8   38       1
    42   32   59       1
    43   13   39       1
    44   14   40       1
    45   15   41       1
    46   16   42       1
    47   17   43       1
    48   21   44       1
    49   22   45       1
    50   23   46       1
    51   26   47       1
    52   26   48       1
    53   27   49       1
    54   28   50       1
    55   28   51       1
    56   29   52       1
    57   29   53       1
    58   30   54       1
    59   30   55       1
    60   31   56       1
    61   31   57       1
    62   32   58       1
@<TRIPOS>SUBSTRUCTURE
     1 NJQ198      1 GROUP             4 B     NJQ     0 **** NJQ B 198
