@<TRIPOS>MOLECULE
./coach420/1k3y/ligand.pdb
 61 55 0 0 0
SMALL
GASTEIGER

@<TRIPOS>ATOM
      1  N1        75.6580   24.5330   13.1260 N.3   5100  GTX5100    -0.1208
      2  CA1       76.5020   25.6550   12.6090 C.3   5100  GTX5100     0.1948
      3  C1        77.1480   25.2170   11.2740 C.2   5100  GTX5100     0.3819
      4  O11       77.4110   24.0020   11.1450 O.co2 5100  GTX5100    -0.2441
      5  O12       77.4070   26.0740   10.4080 O.co2 5100  GTX5100    -0.2441
      6  CB1       77.5580   25.9660   13.6760 C.3   5100  GTX5100     0.0402
      7  CG1       78.4250   27.1760   13.2170 C.3   5100  GTX5100     0.0889
      8  CD1       79.4290   27.5030   14.3290 C.2   5100  GTX5100     0.2418
      9  OE1       79.4710   26.9910   15.4190 O.2   5100  GTX5100    -0.2733
     10  N2        80.2930   28.5270   13.9400 N.am  5100  GTX5100    -0.1969
     11  CA2       81.3360   29.0020   14.8070 C.3   5100  GTX5100     0.1834
     12  C2        81.0380   30.4830   14.9990 C.2   5100  GTX5100     0.2626
     13  O2        80.8110   31.2990   14.1170 O.2   5100  GTX5100    -0.2714
     14  CB2       82.6890   28.8670   14.0840 C.3   5100  GTX5100     0.0886
     15  SG2       83.1030   27.1300   13.8020 S.3   5100  GTX5100    -0.1379
     16  C1S       84.1410   26.6840   15.1900 C.3   5100  GTX5100     0.0576
     17  C2S       84.9670   25.4150   14.8470 C.3   5100  GTX5100     0.0116
     18  C3S       86.3420   25.4690   15.5490 C.3   5100  GTX5100     0.0009
     19  C4S       86.6040   24.1300   16.2480 C.3   5100  GTX5100     0.0000
     20  C5S       87.4150   24.3130   17.5550 C.3   5100  GTX5100     0.0000
     21  C6S       88.3030   23.0790   17.7650 C.3   5100  GTX5100     0.0000
     22  N3        81.1110   30.8340   16.3620 N.am  5100  GTX5100    -0.1917
     23  CA3       80.7860   32.2140   16.7580 C.3   5100  GTX5100     0.2285
     24  C3        79.4870   32.2410   17.5570 C.2   5100  GTX5100     0.3865
     25  O31       79.2060   33.3420   18.1140 O.co2 5100  GTX5100    -0.2437
     26  O32       78.7000   31.2730   17.6310 O.co2 5100  GTX5100    -0.2437
     27  O1        78.6080   14.7240    6.4420 O.3   3001  GOL3001     0.0000
     28  C2        77.0130   16.6300    6.4920 C.3   3001  GOL3001     0.2175
     29  O2        76.0210   15.8510    7.0660 O.3   3001  GOL3001    -0.2175
     30  C3        77.3330   17.0930    7.9150 C.3   3001  GOL3001     0.2175
     31  O3        77.9210   18.4060    7.8660 O.3   3001  GOL3001    -0.2175
     32  O1        75.8400   18.2980   13.9440 O.3   3002  GOL3002     0.0000
     33  C2        76.4120   20.5830   14.4290 C.3   3002  GOL3002     0.2175
     34  O2        75.6450   20.8950   13.2430 O.3   3002  GOL3002    -0.2175
     35  C3        77.3620   21.5110   15.2310 C.3   3002  GOL3002     0.2175
     36  O3        76.9160   22.8530   14.9110 O.3   3002  GOL3002    -0.2175
     37  CA1       72.0610   10.5860   15.4970 C.3   5200  GTX5200     0.1146
     38  C1        70.6270   10.9300   15.1350 C.2   5200  GTX5200     0.3649
     39  O11       69.8120   10.0290   14.8960 O.co2 5200  GTX5200    -0.2457
     40  O12       70.3020   12.1300   15.2450 O.co2 5200  GTX5200    -0.2457
     41  CB1       72.3120   10.3950   16.9990 C.3   5200  GTX5200     0.0214
     42  CG1       71.4830    9.1910   17.4960 C.3   5200  GTX5200     0.0874
     43  CD1       71.7390    8.9730   18.9630 C.2   5200  GTX5200     0.2418
     44  OE1       72.5100    9.5800   19.6920 O.2   5200  GTX5200    -0.2733
     45  N2        70.9180    7.9950   19.5140 N.am  5200  GTX5200    -0.1969
     46  CA2       70.9970    7.6110   20.9330 C.3   5200  GTX5200     0.1834
     47  C2        71.3680    6.1250   20.9340 C.2   5200  GTX5200     0.2626
     48  O2        70.8840    5.2270   20.2560 O.2   5200  GTX5200    -0.2714
     49  CB2       69.5780    7.7120   21.5320 C.3   5200  GTX5200     0.0886
     50  SG2       69.0460    9.4760   21.5260 S.3   5200  GTX5200    -0.1379
     51  C1S       69.6930   10.1510   23.0090 C.3   5200  GTX5200     0.0576
     52  C2S       69.1120    9.5800   24.3020 C.3   5200  GTX5200     0.0116
     53  C3S       68.2800   10.5740   25.1280 C.3   5200  GTX5200     0.0009
     54  C4S       69.0810   11.8240   25.5150 C.3   5200  GTX5200     0.0000
     55  C5S       68.1490   12.9230   26.0460 C.3   5200  GTX5200     0.0000
     56  C6S       68.9350   13.9190   26.9120 C.3   5200  GTX5200     0.0000
     57  N3        72.4360    5.9220   21.8400 N.am  5200  GTX5200    -0.1917
     58  CA3       72.9500    4.5390   21.9200 C.3   5200  GTX5200     0.2285
     59  C3        74.3710    4.4860   21.3790 C.2   5200  GTX5200     0.3865
     60  O31       75.0190    3.4380   21.6080 O.co2 5200  GTX5200    -0.2437
     61  O32       74.8880    5.4320   20.7130 O.co2 5200  GTX5200    -0.2437
@<TRIPOS>BOND
     1     1     2    1
     2     2     3    1
     3     2     6    1
     4     3     5   ar
     5     3     4   ar
     6     6     7    1
     7     7     8    1
     8     8    10   am
     9     8     9    2
    10    10    11    1
    11    11    14    1
    12    11    12    1
    13    12    13    2
    14    12    22   am
    15    14    15    1
    16    15    16    1
    17    16    17    1
    18    17    18    1
    19    18    19    1
    20    19    20    1
    21    20    21    1
    22    22    23    1
    23    23    24    1
    24    24    26   ar
    25    24    25   ar
    26    28    29    1
    27    28    30    1
    28    30    31    1
    29    33    34    1
    30    33    35    1
    31    35    36    1
    32    37    38    1
    33    37    41    1
    34    38    39   ar
    35    38    40   ar
    36    41    42    1
    37    42    43    1
    38    43    45   am
    39    43    44    2
    40    45    46    1
    41    46    47    1
    42    46    49    1
    43    47    48    2
    44    47    57   am
    45    49    50    1
    46    50    51    1
    47    51    52    1
    48    52    53    1
    49    53    54    1
    50    54    55    1
    51    55    56    1
    52    57    58    1
    53    58    59    1
    54    59    61   ar
    55    59    60   ar
