@<TRIPOS>MOLECULE
2bei_ACO_1_ligand
   85    87     1     0     0
SMALL
NO_CHARGES


@<TRIPOS>ATOM
     1 N1A        -14.0310    51.5810     7.4550 N.ar         1 ACO306   0.0000
     2 C2A        -14.6580    50.2760     7.3320 C.ar         1 ACO306   0.0000
     3 N3A        -14.6450    49.5270     8.5860 N.ar         1 ACO306   0.0000
     4 C4A        -14.0170    50.0040     9.7290 C.ar         1 ACO306   0.0000
     5 C5A        -13.4130    51.2500     9.7640 C.ar         1 ACO306   0.0000
     6 C6A        -13.4500    52.0470     8.6270 C.ar         1 ACO306   0.0000
     7 N6A        -12.9060    53.2600     8.5800 N.pl3        1 ACO306   0.0000
     8 N7A        -12.9050    51.4040    10.9850 N.2          1 ACO306   0.0000
     9 C8A        -13.1800    50.2970    11.6720 C.2          1 ACO306   0.0000
    10 N9A        -13.8700    49.4510    10.9080 N.pl3        1 ACO306   0.0000
    11 C1B        -14.3390    48.0920    11.2930 C.3          1 ACO306   0.0000
    12 C2B        -15.8310    47.7730    11.0990 C.3          1 ACO306   0.0000
    13 O2B        -16.2490    46.9630    12.2220 O.3          1 ACO306   0.0000
    14 C3B        -15.8530    46.9400     9.8250 C.3          1 ACO306   0.0000
    15 O3B        -16.9690    46.0390     9.9530 O.3          1 ACO306   0.0000
    16 P3B        -18.1350    45.7870     8.8170 P.3          1 ACO306   0.0000
    17 O7A        -17.4130    45.4570     7.5030 O.co2        1 ACO306   0.0000
    18 O8A        -18.8900    47.1370     8.6080 O.co2        1 ACO306  -1.0000
    19 O9A        -19.0250    44.6560     9.2090 O.co2        1 ACO306  -1.0000
    20 C4B        -14.5650    46.1670    10.1410 C.3          1 ACO306   0.0000
    21 O4B        -13.6080    47.1300    10.4890 O.3          1 ACO306   0.0000
    22 C5B        -13.8630    44.9450     9.4490 C.3          1 ACO306   0.0000
    23 O5B        -13.2840    45.0850     8.2790 O.3          1 ACO306   0.0000
    24 P1A        -11.6930    45.1690     7.8380 P.3          1 ACO306   0.0000
    25 O1A        -11.8870    45.6570     6.5010 O.co2        1 ACO306   0.0000
    26 O2A        -10.8320    43.9870     8.0710 O.co2        1 ACO306  -1.0000
    27 O3A        -11.2100    46.4380     8.7000 O.3          1 ACO306   0.0000
    28 P2A         -9.8600    47.2990     8.5070 P.3          1 ACO306   0.0000
    29 O4A         -8.8990    46.7790     7.5210 O.co2        1 ACO306   0.0000
    30 O5A        -10.3370    48.6820     8.4070 O.co2        1 ACO306  -1.0000
    31 O6A         -9.2960    47.0660     9.9560 O.3          1 ACO306   0.0000
    32 CBP         -9.0780    48.3910    12.0640 C.3          1 ACO306   0.0000
    33 CCP         -9.9770    47.4570    11.2250 C.3          1 ACO306   0.0000
    34 CDP         -9.8180    48.7410    13.3630 C.3          1 ACO306   0.0000
    35 CEP         -7.7780    47.6390    12.4540 C.3          1 ACO306   0.0000
    36 CAP         -8.7610    49.6470    11.1950 C.3          1 ACO306   0.0000
    37 OAP         -9.9620    50.2520    10.7260 O.3          1 ACO306   0.0000
    38 C9P         -8.0210    50.6830    11.9790 C.2          1 ACO306   0.0000
    39 O9P         -6.7000    50.5400    12.1030 O.2          1 ACO306   0.0000
    40 N8P         -8.6860    51.6760    12.5570 N.am         1 ACO306   0.0000
    41 C7P         -7.9240    52.7000    13.3340 C.3          1 ACO306   0.0000
    42 C6P         -6.9820    52.1170    14.4640 C.3          1 ACO306   0.0000
    43 C5P         -7.6960    51.1220    15.3950 C.2          1 ACO306   0.0000
    44 O5P         -8.9840    51.3670    15.7320 O.2          1 ACO306   0.0000
    45 N4P         -7.0330    50.0480    15.8120 N.am         1 ACO306   0.0000
    46 C3P         -7.6270    49.0540    16.7440 C.3          1 ACO306   0.0000
    47 C2P         -7.0290    49.3660    18.1340 C.3          1 ACO306   0.0000
    48 S1P         -7.4730    48.0980    19.4050 S.3          1 ACO306   0.0000
    49 C           -5.8530    47.3810    19.9140 C.2          1 ACO306   0.0000
    50 O           -4.7620    47.8790    19.0980 O.2          1 ACO306   0.0000
    51 CH3         -5.9150    45.8520    19.9240 C.3          1 ACO306   0.0000
    52 H2A        -15.0548    49.9288     6.4823 H            1 ACO306   0.0000
    53 H6A1       -12.4735    53.6459     9.3949 H            1 ACO306   0.0000
    54 H6A2       -12.9295    53.7859     7.7298 H            1 ACO306   0.0000
    55 H8A        -12.9093    50.1261    12.6194 H            1 ACO306   0.0000
    56 H1B        -14.1071    47.9397    12.2538 H            1 ACO306   0.0000
    57 H2B        -16.3819    48.6030    11.0119 H            1 ACO306   0.0000
    58 H7         -15.7037    47.2008    13.0258 H            1 ACO306   0.0000
    59 H3B        -15.8313    47.4672     8.9755 H            1 ACO306   0.0000
    60 H4B        -14.7858    45.7813    11.0368 H            1 ACO306   0.0000
    61 H5B1       -14.5610    44.2371     9.3406 H            1 ACO306   0.0000
    62 H5B2       -13.1579    44.6238    10.0812 H            1 ACO306   0.0000
    63 HCP1       -10.1800    46.6339    11.7553 H            1 ACO306   0.0000
    64 HCP2       -10.8297    47.9316    11.0068 H            1 ACO306   0.0000
    65 HDP1        -9.2481    49.3464    13.9185 H            1 ACO306   0.0000
    66 HDP2       -10.6779    49.2017    13.1430 H            1 ACO306   0.0000
    67 HDP3       -10.0100    47.9028    13.8734 H            1 ACO306   0.0000
    68 HEP1        -7.1943    48.2422    12.9975 H            1 ACO306   0.0000
    69 HEP2        -8.0104    46.8278    12.9906 H            1 ACO306   0.0000
    70 HEP3        -7.2915    47.3624    11.6252 H            1 ACO306   0.0000
    71 HAP         -8.2054    49.3709    10.4107 H            1 ACO306   0.0000
    72 H21        -10.2144    49.8525     9.8447 H            1 ACO306   0.0000
    73 H8P         -9.6806    51.7377    12.4738 H            1 ACO306   0.0000
    74 H7P1        -8.5832    53.3152    13.7664 H            1 ACO306   0.0000
    75 H7P2        -7.3565    53.2168    12.6930 H            1 ACO306   0.0000
    76 H6P1        -6.6386    52.8775    15.0151 H            1 ACO306   0.0000
    77 H6P2        -6.2141    51.6485    14.0271 H            1 ACO306   0.0000
    78 H4P         -6.0987    49.9032    15.4862 H            1 ACO306   0.0000
    79 H3P1        -7.3857    48.1254    16.4621 H            1 ACO306   0.0000
    80 H3P2        -8.6224    49.1481    16.7646 H            1 ACO306   0.0000
    81 H2P1        -7.3711    50.2555    18.4368 H            1 ACO306   0.0000
    82 H2P2        -6.0330    49.4020    18.0527 H            1 ACO306   0.0000
    83 HH31        -5.0277    45.4842    20.2023 H            1 ACO306   0.0000
    84 HH32        -6.6176    45.5511    20.5688 H            1 ACO306   0.0000
    85 HH33        -6.1402    45.5215    19.0074 H            1 ACO306   0.0000
@<TRIPOS>BOND
     1    1    2      ar
     2    1    6      ar
     3    2    3      ar
     4    3    4      ar
     5    4    5      ar
     6    4   10       1
     7    5    6      ar
     8    5    8       1
     9    6    7       1
    10    8    9       2
    11    9   10       1
    12   10   11       1
    13   11   12       1
    14   11   21       1
    15   12   13       1
    16   12   14       1
    17   14   15       1
    18   14   20       1
    19   15   16       1
    20   16   17      ar
    21   16   18      ar
    22   16   19      ar
    23   20   21       1
    24   20   22       1
    25   22   23       1
    26   23   24       1
    27   24   25      ar
    28   24   26      ar
    29   24   27       1
    30   27   28       1
    31   28   29      ar
    32   28   30      ar
    33   28   31       1
    34   31   33       1
    35   32   33       1
    36   32   34       1
    37   32   35       1
    38   32   36       1
    39   36   37       1
    40   36   38       1
    41   38   39       2
    42   38   40      am
    43   40   41       1
    44   41   42       1
    45   42   43       1
    46   43   44       2
    47   43   45      am
    48   45   46       1
    49   46   47       1
    50   47   48       1
    51   48   49       1
    52   49   50       2
    53   49   51       1
    54    2   52       1
    55    7   53       1
    56    7   54       1
    57    9   55       1
    58   11   56       1
    59   12   57       1
    60   13   58       1
    61   14   59       1
    62   51   85       1
    63   51   84       1
    64   20   60       1
    65   22   61       1
    66   22   62       1
    67   51   83       1
    68   47   82       1
    69   33   63       1
    70   33   64       1
    71   34   65       1
    72   34   66       1
    73   34   67       1
    74   35   68       1
    75   35   69       1
    76   35   70       1
    77   36   71       1
    78   37   72       1
    79   40   73       1
    80   41   74       1
    81   41   75       1
    82   42   76       1
    83   42   77       1
    84   45   78       1
    85   46   79       1
    86   46   80       1
    87   47   81       1
@<TRIPOS>SUBSTRUCTURE
     1 ACO306      1 GROUP             4 A     ACO     0 **** ACO A 306
