@<TRIPOS>MOLECULE
5b1y_NDP_1_ligand
   73    77     1     0     0
SMALL
NO_CHARGES


@<TRIPOS>ATOM
     1 PA         -23.5160    12.3990    22.9670 P.3          1 NDP300   0.0000
     2 O1A        -23.5020    11.1160    22.2790 O.co2        1 NDP300   0.0000
     3 O2A        -24.7580    12.9320    23.5170 O.co2        1 NDP300  -1.0000
     4 O5B        -22.8800    13.4350    22.0390 O.3          1 NDP300   0.0000
     5 C5B        -21.5400    13.7080    22.3940 C.3          1 NDP300   0.0000
     6 C4B        -21.2970    15.0790    21.8860 C.3          1 NDP300   0.0000
     7 O4B        -20.1560    14.9360    21.1410 O.3          1 NDP300   0.0000
     8 C3B        -22.4000    15.3850    20.8810 C.3          1 NDP300   0.0000
     9 O3B        -23.1380    16.4430    21.4380 O.3          1 NDP300   0.0000
    10 C2B        -21.6050    15.7320    19.5660 C.3          1 NDP300   0.0000
    11 O2B        -22.0450    16.9250    18.7340 O.3          1 NDP300   0.0000
    12 C1B        -20.3770    16.0570    20.3060 C.3          1 NDP300   0.0000
    13 N9A        -19.2160    16.0570    19.5720 N.pl3        1 NDP300   0.0000
    14 C8A        -18.4660    15.0700    19.1470 C.2          1 NDP300   0.0000
    15 N7A        -17.4240    15.6490    18.5780 N.2          1 NDP300   0.0000
    16 C5A        -17.5630    16.9770    18.6640 C.ar         1 NDP300   0.0000
    17 C6A        -16.7980    17.9680    18.2470 C.ar         1 NDP300   0.0000
    18 N6A        -15.7070    17.6080    17.6120 N.pl3        1 NDP300   0.0000
    19 N1A        -17.1180    19.2380    18.4810 N.ar         1 NDP300   0.0000
    20 C2A        -18.2920    19.5360    19.1690 C.ar         1 NDP300   0.0000
    21 N3A        -19.1120    18.4600    19.5800 N.ar         1 NDP300   0.0000
    22 C4A        -18.6870    17.2220    19.3170 C.ar         1 NDP300   0.0000
    23 O3         -22.3670    12.3860    24.0840 O.3          1 NDP300   0.0000
    24 PN         -22.5680    12.3690    25.6750 P.3          1 NDP300   0.0000
    25 O1N        -23.1790    11.0550    25.8950 O.co2        1 NDP300   0.0000
    26 O2N        -23.1580    13.6080    26.2590 O.co2        1 NDP300  -1.0000
    27 O5D        -21.0460    12.3900    26.1160 O.3          1 NDP300   0.0000
    28 C5D        -20.3670    13.6520    26.2370 C.3          1 NDP300   0.0000
    29 C4D        -19.2550    13.5530    27.2490 C.3          1 NDP300   0.0000
    30 O4D        -19.7740    12.6870    28.2620 O.3          1 NDP300   0.0000
    31 C3D        -18.1070    12.8220    26.6240 C.3          1 NDP300   0.0000
    32 O3D        -16.9530    13.4290    27.1160 O.3          1 NDP300   0.0000
    33 C2D        -18.3880    11.3710    27.0880 C.3          1 NDP300   0.0000
    34 O2D        -17.2840    10.5260    26.9920 O.3          1 NDP300   0.0000
    35 C1D        -18.7830    11.6810    28.5030 C.3          1 NDP300   0.0000
    36 N1N        -19.2820    10.5320    29.3140 N.ar         1 NDP300   1.0000
    37 C2N        -20.4510     9.8270    28.9840 C.ar         1 NDP300   0.0000
    38 C3N        -20.8690     8.7590    29.7750 C.ar         1 NDP300   0.0000
    39 C7N        -22.0340     8.0160    29.5020 C.2          1 NDP300   0.0000
    40 O7N        -22.2520     6.9630    30.0820 O.2          1 NDP300   0.0000
    41 N7N        -22.8970     8.5390    28.6300 N.am         1 NDP300   0.0000
    42 C4N        -20.1080     8.4270    30.8870 C.ar         1 NDP300   0.0000
    43 C5N        -18.9530     9.1300    31.2050 C.ar         1 NDP300   0.0000
    44 C6N        -18.5460    10.1920    30.4260 C.ar         1 NDP300   0.0000
    45 P2B        -22.5800    16.8540    17.1530 P.3          1 NDP300   0.0000
    46 O1X        -21.3600    17.3020    16.4620 O.co2        1 NDP300   0.0000
    47 O2X        -23.7030    17.7610    16.9840 O.co2        1 NDP300  -1.0000
    48 O3X        -22.8830    15.4330    17.0000 O.co2        1 NDP300  -1.0000
    49 H5B1       -20.9189    13.0548    21.9609 H            1 NDP300   0.0000
    50 H5B2       -21.4224    13.6722    23.3864 H            1 NDP300   0.0000
    51 H4B        -21.2167    15.7638    22.6103 H            1 NDP300   0.0000
    52 H3B        -22.9820    14.5840    20.7407 H            1 NDP300   0.0000
    53 H5         -23.1015    16.3859    22.4357 H            1 NDP300   0.0000
    54 H2B        -21.4788    14.9205    18.9954 H            1 NDP300   0.0000
    55 H1B        -20.4779    16.8984    20.8369 H            1 NDP300   0.0000
    56 H8A        -18.6441    14.0899    19.2346 H            1 NDP300   0.0000
    57 H6A1       -15.0773    18.3035    17.2660 H            1 NDP300   0.0000
    58 H6A2       -15.5056    16.6382    17.4742 H            1 NDP300   0.0000
    59 H2A        -18.5472    20.4826    19.3663 H            1 NDP300   0.0000
    60 H5D1       -21.0193    14.3506    26.5310 H            1 NDP300   0.0000
    61 H5D2       -19.9834    13.9066    25.3493 H            1 NDP300   0.0000
    62 H4D        -18.9874    14.4461    27.6107 H            1 NDP300   0.0000
    63 H3D        -18.1450    12.8888    25.6270 H            1 NDP300   0.0000
    64 H16        -16.2146    12.7559    27.1587 H            1 NDP300   0.0000
    65 H2D        -19.1637    10.9889    26.5857 H            1 NDP300   0.0000
    66 H18        -16.4459    11.0572    27.1159 H            1 NDP300   0.0000
    67 H1D        -18.0051    12.0974    28.9737 H            1 NDP300   0.0000
    68 H2N        -20.9839    10.0919    28.1804 H            1 NDP300   0.0000
    69 H7N1       -23.7386     8.0485    28.4040 H            1 NDP300   0.0000
    70 H7N2       -22.7025     9.4217    28.2022 H            1 NDP300   0.0000
    71 H4N        -20.3965     7.6676    31.4701 H            1 NDP300   0.0000
    72 H5N        -18.4135     8.8641    32.0039 H            1 NDP300   0.0000
    73 H6N        -17.7249    10.7097    30.6663 H            1 NDP300   0.0000
@<TRIPOS>BOND
     1    1    2      ar
     2    1    3      ar
     3    1    4       1
     4    1   23       1
     5    4    5       1
     6    5    6       1
     7    6    7       1
     8    6    8       1
     9    7   12       1
    10    8    9       1
    11    8   10       1
    12   10   11       1
    13   10   12       1
    14   11   45       1
    15   12   13       1
    16   13   14       1
    17   13   22       1
    18   14   15       2
    19   15   16       1
    20   16   17      ar
    21   16   22      ar
    22   17   18       1
    23   17   19      ar
    24   19   20      ar
    25   20   21      ar
    26   21   22      ar
    27   23   24       1
    28   24   25      ar
    29   24   26      ar
    30   24   27       1
    31   27   28       1
    32   28   29       1
    33   29   30       1
    34   29   31       1
    35   30   35       1
    36   31   32       1
    37   31   33       1
    38   33   34       1
    39   33   35       1
    40   35   36       1
    41   36   37      ar
    42   36   44      ar
    43   37   38      ar
    44   38   39       1
    45   38   42      ar
    46   39   40       2
    47   39   41      am
    48   42   43      ar
    49   43   44      ar
    50   45   46      ar
    51   45   47      ar
    52   45   48      ar
    53   43   72       1
    54    5   49       1
    55    5   50       1
    56    6   51       1
    57    8   52       1
    58    9   53       1
    59   10   54       1
    60   12   55       1
    61   14   56       1
    62   18   57       1
    63   18   58       1
    64   20   59       1
    65   44   73       1
    66   28   60       1
    67   28   61       1
    68   29   62       1
    69   31   63       1
    70   32   64       1
    71   33   65       1
    72   34   66       1
    73   35   67       1
    74   37   68       1
    75   41   69       1
    76   41   70       1
    77   42   71       1
@<TRIPOS>SUBSTRUCTURE
     1 NDP300      1 GROUP             4 A     NDP     0 **** NDP A 300
