@<TRIPOS>MOLECULE
3vsj_2XP_1_ligand
   16    15     1     0     0
SMALL
NO_CHARGES


@<TRIPOS>ATOM
     1 O3         101.6280    57.8230   -16.3240 O.co2        1 2XP402   0.0000
     2 C1         100.9120    57.3270   -15.4280 C.2          1 2XP402   0.0000
     3 O2          99.6640    57.4210   -15.4520 O.co2        1 2XP402  -1.0000
     4 C2         101.5200    56.5000   -14.3990 C.2          1 2XP402   0.0000
     5 N          102.1450    55.4940   -14.8370 N.2          1 2XP402   0.0000
     6 C3         101.3390    56.6190   -12.9290 C.2          1 2XP402   0.0000
     7 C4         100.8380    57.6050   -12.1590 C.2          1 2XP402   0.0000
     8 C5         100.1710    58.8890   -12.4360 C.2          1 2XP402   0.0000
     9 C6         100.1670    59.6190   -13.5410 C.2          1 2XP402   0.0000
    10 O1         100.7570    59.2470   -14.6560 O.3          1 2XP402   0.0000
    11 H1         101.6463    55.8180   -12.4152 H            1 2XP402   0.0000
    12 H2         100.9423    57.4248   -11.1809 H            1 2XP402   0.0000
    13 H3          99.6420    59.2659   -11.6757 H            1 2XP402   0.0000
    14 H4          99.6909    60.4983   -13.5268 H            1 2XP402   0.0000
    15 H5         100.7223    59.8386   -15.4615 H            1 2XP402   0.0000
    16 H6         102.5952    54.8686   -14.1997 H            1 2XP402   0.0000
@<TRIPOS>BOND
     1    1    2      ar
     2    2    3      ar
     3    2    4       1
     4    4    5       2
     5    4    6       1
     6    6    7       2
     7    7    8       1
     8    8    9       2
     9    9   10       1
    10   10   15       1
    11    5   16       1
    12    6   11       1
    13    7   12       1
    14    8   13       1
    15    9   14       1
@<TRIPOS>SUBSTRUCTURE
     1 2XP402      1 GROUP             4 B     2XP     0 **** 2XP B 402
