@<TRIPOS>MOLECULE
5eg3_ACP_1_ligand
   45    47     1     0     0
SMALL
NO_CHARGES


@<TRIPOS>ATOM
     1 PG          20.1970    -7.7400    42.9930 P.3          1 ACP801   0.0000
     2 O1G         21.1100    -7.9150    41.7270 O.co2        1 ACP801   0.0000
     3 O2G         20.7620    -8.6160    44.1550 O.co2        1 ACP801  -1.0000
     4 O3G         20.2190    -6.3120    43.4290 O.co2        1 ACP801  -1.0000
     5 PB          17.9750    -6.7450    41.4240 P.3          1 ACP801   0.0000
     6 O1B         18.8150    -6.7200    40.1110 O.co2        1 ACP801   0.0000
     7 O2B         16.5650    -7.0840    41.0910 O.co2        1 ACP801  -1.0000
     8 C3B         18.4570    -8.1500    42.5620 C.3          1 ACP801   0.0000
     9 PA          17.8360    -3.9050    40.8870 P.3          1 ACP801   0.0000
    10 O1A         18.7520    -3.9070    39.6720 O.co2        1 ACP801   0.0000
    11 O2A         18.0290    -2.6010    41.6300 O.co2        1 ACP801  -1.0000
    12 O3A         18.1410    -5.2090    41.8700 O.3          1 ACP801   0.0000
    13 O5'         16.3600    -3.8590    40.3080 O.3          1 ACP801   0.0000
    14 C5'         16.3030    -3.1810    39.0810 C.3          1 ACP801   0.0000
    15 C4'         15.0160    -3.2260    38.3590 C.3          1 ACP801   0.0000
    16 O4'         13.8510    -2.8330    39.1920 O.3          1 ACP801   0.0000
    17 C3'         15.1710    -2.2440    37.3120 C.3          1 ACP801   0.0000
    18 O3'         15.4070    -2.9440    36.1020 O.3          1 ACP801   0.0000
    19 C2'         13.9770    -1.4800    37.2690 C.3          1 ACP801   0.0000
    20 O2'         13.1150    -2.0790    36.2870 O.3          1 ACP801   0.0000
    21 C1'         13.4140    -1.5280    38.6220 C.3          1 ACP801   0.0000
    22 N9          13.8840    -0.4500    39.4150 N.pl3        1 ACP801   0.0000
    23 C8          14.8670    -0.4660    40.3410 C.2          1 ACP801   0.0000
    24 N7          15.0320     0.7570    40.8570 N.2          1 ACP801   0.0000
    25 C5          14.1690     1.6100    40.3020 C.ar         1 ACP801   0.0000
    26 C6          13.8840     2.9870    40.4350 C.ar         1 ACP801   0.0000
    27 N6          14.6060     3.8440    41.3570 N.pl3        1 ACP801   0.0000
    28 N1          12.9240     3.5400    39.6930 N.ar         1 ACP801   0.0000
    29 C2          12.2190     2.8170    38.8050 C.ar         1 ACP801   0.0000
    30 N3          12.4590     1.4910    38.6430 N.ar         1 ACP801   0.0000
    31 C4          13.4160     0.8580    39.3670 C.ar         1 ACP801   0.0000
    32 H3B1        17.8782    -8.1688    43.3772 H            1 ACP801   0.0000
    33 H3B2        18.3996    -9.0308    42.0921 H            1 ACP801   0.0000
    34 H5'1        17.0001    -3.5769    38.4832 H            1 ACP801   0.0000
    35 H5'2        16.5196    -2.2204    39.2550 H            1 ACP801   0.0000
    36 H4'         14.8706    -4.1335    37.9650 H            1 ACP801   0.0000
    37 H3'         15.9479    -1.6487    37.5170 H            1 ACP801   0.0000
    38 H7          16.3904    -3.0798    35.9818 H            1 ACP801   0.0000
    39 H2'         14.1825    -0.5348    37.0154 H            1 ACP801   0.0000
    40 H9          12.5370    -1.3738    35.8763 H            1 ACP801   0.0000
    41 H1'         12.4156    -1.4995    38.5726 H            1 ACP801   0.0000
    42 H11         15.3945    -1.2742    40.6027 H            1 ACP801   0.0000
    43 H12         14.3749     4.8147    41.4226 H            1 ACP801   0.0000
    44 H13         15.3346     3.4638    41.9267 H            1 ACP801   0.0000
    45 H14         11.5098     3.2614    38.2577 H            1 ACP801   0.0000
@<TRIPOS>BOND
     1    1    2      ar
     2    1    3      ar
     3    1    4      ar
     4    1    8       1
     5    5    6      ar
     6    5    7      ar
     7    5    8       1
     8    5   12       1
     9    9   10      ar
    10    9   11      ar
    11    9   12       1
    12    9   13       1
    13   13   14       1
    14   14   15       1
    15   15   16       1
    16   15   17       1
    17   16   21       1
    18   17   18       1
    19   17   19       1
    20   19   20       1
    21   19   21       1
    22   21   22       1
    23   22   23       1
    24   22   31       1
    25   23   24       2
    26   24   25       1
    27   25   26      ar
    28   25   31      ar
    29   26   27       1
    30   26   28      ar
    31   28   29      ar
    32   29   30      ar
    33   30   31      ar
    34   29   45       1
    35   27   44       1
    36   27   43       1
    37    8   32       1
    38    8   33       1
    39   23   42       1
    40   14   34       1
    41   14   35       1
    42   15   36       1
    43   17   37       1
    44   18   38       1
    45   19   39       1
    46   20   40       1
    47   21   41       1
@<TRIPOS>SUBSTRUCTURE
     1 ACP801      1 GROUP             4 A     ACP     0 **** ACP A 801
