@<TRIPOS>MOLECULE
2jbs_FMN_3_ligand
   52    54     1     0     0
SMALL
NO_CHARGES


@<TRIPOS>ATOM
     1 N1          13.9870    60.0760    55.9880 N.pl3        1 FMN1423   0.0000
     2 C2          14.2690    60.8460    57.0850 C.2          1 FMN1423   0.0000
     3 O2          15.3110    61.4800    57.0980 O.2          1 FMN1423   0.0000
     4 N3          13.3860    60.8960    58.1480 N.pl3        1 FMN1423   0.0000
     5 C4          12.2000    60.1680    58.1160 C.2          1 FMN1423   0.0000
     6 O4          11.3370    60.3920    58.9850 O.2          1 FMN1423   0.0000
     7 C4A         11.9120    59.3660    56.9910 C.2          1 FMN1423   0.0000
     8 N5          10.7390    58.6170    56.9080 N.2          1 FMN1423   0.0000
     9 C5A         10.4840    57.8470    55.7870 C.2          1 FMN1423   0.0000
    10 C6           9.3100    57.1160    55.7230 C.2          1 FMN1423   0.0000
    11 C7           9.0410    56.3180    54.6040 C.2          1 FMN1423   0.0000
    12 C7M          8.0190    55.2270    54.8160 C.3          1 FMN1423   0.0000
    13 C8           9.9650    56.2370    53.5290 C.3          1 FMN1423   0.0000
    14 C8M         10.2190    54.8800    52.9090 C.3          1 FMN1423   0.0000
    15 C9          11.1210    57.0190    53.6000 C.2          1 FMN1423   0.0000
    16 C9A         11.3970    57.7990    54.7250 C.2          1 FMN1423   0.0000
    17 N10         12.5630    58.5530    54.7820 N.pl3        1 FMN1423   0.0000
    18 C10         12.8240    59.3210    55.9220 C.2          1 FMN1423   0.0000
    19 C1'         13.1530    59.0660    53.4880 C.3          1 FMN1423   0.0000
    20 C2'         14.5260    58.4030    53.2350 C.3          1 FMN1423   0.0000
    21 O2'         15.5170    58.6890    54.2250 O.3          1 FMN1423   0.0000
    22 C3'         15.0930    58.8110    51.8870 C.3          1 FMN1423   0.0000
    23 O3'         15.3020    60.2090    51.8560 O.3          1 FMN1423   0.0000
    24 C4'         14.1640    58.3540    50.7730 C.3          1 FMN1423   0.0000
    25 O4'         13.8350    56.9860    50.9620 O.3          1 FMN1423   0.0000
    26 C5'         14.9020    58.5170    49.4610 C.3          1 FMN1423   0.0000
    27 O5'         14.5190    57.4360    48.6430 O.3          1 FMN1423   0.0000
    28 P           14.1890    57.8530    47.1440 P.3          1 FMN1423   0.0000
    29 O1P         12.8620    57.1630    46.7980 O.co2        1 FMN1423   0.0000
    30 O2P         13.9560    59.3600    47.0780 O.co2        1 FMN1423  -1.0000
    31 O3P         15.3860    57.5130    46.2440 O.co2        1 FMN1423  -1.0000
    32 H1          14.6295    60.0574    55.2219 H            1 FMN1423   0.0000
    33 H2          13.6011    61.4594    58.9457 H            1 FMN1423   0.0000
    34 H3           8.6537    57.1578    56.4763 H            1 FMN1423   0.0000
    35 H7M1         7.8964    54.7153    53.9656 H            1 FMN1423   0.0000
    36 H7M2         8.3362    54.6082    55.5346 H            1 FMN1423   0.0000
    37 H7M3         7.1475    55.6350    55.0882 H            1 FMN1423   0.0000
    38 H7           9.4597    56.6967    52.7987 H            1 FMN1423   0.0000
    39 H8M1        10.8859    54.9710    52.1694 H            1 FMN1423   0.0000
    40 H8M2        10.5760    54.2571    53.6050 H            1 FMN1423   0.0000
    41 H8M3         9.3629    54.5153    52.5428 H            1 FMN1423   0.0000
    42 H11         11.7615    57.0201    52.8321 H            1 FMN1423   0.0000
    43 H1'1        13.2696    60.0574    53.5471 H            1 FMN1423   0.0000
    44 H1'2        12.5353    58.8475    52.7326 H            1 FMN1423   0.0000
    45 H2'         14.3877    57.4127    53.2199 H            1 FMN1423   0.0000
    46 H15         16.0222    59.5113    53.9631 H            1 FMN1423   0.0000
    47 H3'         15.9762    58.3577    51.7665 H            1 FMN1423   0.0000
    48 H17         15.6753    60.4706    50.9659 H            1 FMN1423   0.0000
    49 H4'         13.3325    58.9096    50.7702 H            1 FMN1423   0.0000
    50 H19         13.6686    56.5574    50.0740 H            1 FMN1423   0.0000
    51 H5'1        15.8896    58.4982    49.6167 H            1 FMN1423   0.0000
    52 H5'2        14.6491    59.3826    49.0288 H            1 FMN1423   0.0000
@<TRIPOS>BOND
     1    1    2       1
     2    1   18       1
     3    2    3       2
     4    2    4       1
     5    4    5       1
     6    5    6       2
     7    5    7       1
     8    7    8       1
     9    7   18       2
    10    8    9       2
    11    9   10       1
    12    9   16       1
    13   10   11       2
    14   11   12       1
    15   11   13       1
    16   13   14       1
    17   13   15       1
    18   15   16       2
    19   16   17       1
    20   17   18       1
    21   17   19       1
    22   19   20       1
    23   20   21       1
    24   20   22       1
    25   22   23       1
    26   22   24       1
    27   24   25       1
    28   24   26       1
    29   26   27       1
    30   27   28       1
    31   28   29      ar
    32   28   30      ar
    33   28   31      ar
    34    1   32       1
    35    4   33       1
    36   10   34       1
    37   12   35       1
    38   12   36       1
    39   12   37       1
    40   13   38       1
    41   14   39       1
    42   14   40       1
    43   14   41       1
    44   15   42       1
    45   19   43       1
    46   19   44       1
    47   20   45       1
    48   21   46       1
    49   22   47       1
    50   23   48       1
    51   24   49       1
    52   25   50       1
    53   26   51       1
    54   26   52       1
@<TRIPOS>SUBSTRUCTURE
     1 FMN1423     1 GROUP             4 C     FMN     0 **** FMN C1423
