@<TRIPOS>MOLECULE
5c7h_NDP_1_ligand
   73    77     1     0     0
SMALL
NO_CHARGES


@<TRIPOS>ATOM
     1 PA           3.0240    -5.2530     8.7160 P.3          1 NDP301   0.0000
     2 O1A          1.8210    -4.5280     9.2180 O.co2        1 NDP301   0.0000
     3 O2A          3.7600    -4.7550     7.5090 O.co2        1 NDP301  -1.0000
     4 O5B          4.1270    -5.4740     9.8540 O.3          1 NDP301   0.0000
     5 C5B          3.7500    -6.0690    11.1030 C.3          1 NDP301   0.0000
     6 C4B          5.0290    -6.2630    11.9060 C.3          1 NDP301   0.0000
     7 O4B          5.6330    -4.9950    12.2170 O.3          1 NDP301   0.0000
     8 C3B          4.8120    -6.9740    13.2380 C.3          1 NDP301   0.0000
     9 O3B          5.9160    -7.8610    13.4800 O.3          1 NDP301   0.0000
    10 C2B          4.7900    -5.8340    14.2380 C.3          1 NDP301   0.0000
    11 O2B          5.2660    -6.2350    15.5140 O.3          1 NDP301   0.0000
    12 C1B          5.7360    -4.8100    13.6350 C.3          1 NDP301   0.0000
    13 N9A          5.4580    -3.3900    13.8960 N.pl3        1 NDP301   0.0000
    14 C8A          4.2580    -2.7720    13.7950 C.2          1 NDP301   0.0000
    15 N7A          4.3610    -1.4690    14.0460 N.2          1 NDP301   0.0000
    16 C5A          5.6970    -1.2560    14.3010 C.ar         1 NDP301   0.0000
    17 C6A          6.4390    -0.1060    14.6220 C.ar         1 NDP301   0.0000
    18 N6A          5.8620     1.1090    14.7480 N.pl3        1 NDP301   0.0000
    19 N1A          7.7610    -0.2470    14.8170 N.ar         1 NDP301   0.0000
    20 C2A          8.3210    -1.4590    14.6810 C.ar         1 NDP301   0.0000
    21 N3A          7.7100    -2.6100    14.3620 N.ar         1 NDP301   0.0000
    22 C4A          6.3730    -2.4520    14.2030 C.ar         1 NDP301   0.0000
    23 O3           2.6520    -6.7950     8.3920 O.3          1 NDP301   0.0000
    24 PN           1.2660    -7.6110     8.2710 P.3          1 NDP301   0.0000
    25 O1N          0.6920    -7.8440     9.6360 O.co2        1 NDP301   0.0000
    26 O2N          1.5570    -8.7830     7.3730 O.co2        1 NDP301  -1.0000
    27 O5D          0.3210    -6.6670     7.3960 O.3          1 NDP301   0.0000
    28 C5D         -0.6740    -5.8220     7.9740 C.3          1 NDP301   0.0000
    29 C4D         -2.0430    -6.4630     7.8500 C.3          1 NDP301   0.0000
    30 O4D         -2.4040    -6.6640     6.4930 O.3          1 NDP301   0.0000
    31 C3D         -2.1570    -7.8480     8.4450 C.3          1 NDP301   0.0000
    32 O3D         -2.1010    -7.8490     9.8790 O.3          1 NDP301   0.0000
    33 C2D         -3.4630    -8.3240     7.8440 C.3          1 NDP301   0.0000
    34 O2D         -4.5360    -7.6790     8.5240 O.3          1 NDP301   0.0000
    35 C1D         -3.2820    -7.7730     6.4240 C.3          1 NDP301   0.0000
    36 N1N         -2.7240    -8.7620     5.4860 N.ar         1 NDP301   1.0000
    37 C2N         -3.4740    -9.2540     4.4880 C.ar         1 NDP301   0.0000
    38 C3N         -3.0110   -10.1500     3.5390 C.ar         1 NDP301   0.0000
    39 C7N         -3.8400   -10.6430     2.4280 C.2          1 NDP301   0.0000
    40 O7N         -3.5280   -11.6350     1.7290 O.2          1 NDP301   0.0000
    41 N7N         -4.9780    -9.9550     2.1580 N.am         1 NDP301   0.0000
    42 C4N         -1.6560   -10.5570     3.6150 C.ar         1 NDP301   0.0000
    43 C5N         -0.7890    -9.9810     4.5980 C.ar         1 NDP301   0.0000
    44 C6N         -1.3160    -9.0670     5.4860 C.ar         1 NDP301   0.0000
    45 P2B          4.3700    -6.2290    16.8410 P.3          1 NDP301   0.0000
    46 O1X          5.1350    -7.2200    17.6990 O.co2        1 NDP301   0.0000
    47 O2X          4.4070    -4.8370    17.4060 O.co2        1 NDP301  -1.0000
    48 O3X          2.9690    -6.6470    16.5050 O.co2        1 NDP301  -1.0000
    49 H5B1         3.3072    -6.9513    10.9436 H            1 NDP301   0.0000
    50 H5B2         3.1230    -5.4656    11.5958 H            1 NDP301   0.0000
    51 H4B          5.6724    -6.7982    11.3587 H            1 NDP301   0.0000
    52 H3B          3.9445    -7.4715    13.2420 H            1 NDP301   0.0000
    53 H5           6.0629    -7.9493    14.4652 H            1 NDP301   0.0000
    54 H2B          3.8679    -5.4545    14.3136 H            1 NDP301   0.0000
    55 H1B          6.6702    -5.0184    13.9244 H            1 NDP301   0.0000
    56 H8A          3.4031    -3.2353    13.5616 H            1 NDP301   0.0000
    57 H6A1         6.4203     1.9063    14.9774 H            1 NDP301   0.0000
    58 H6A2         4.8766     1.2111    14.6118 H            1 NDP301   0.0000
    59 H2A          9.3077    -1.5101    14.8353 H            1 NDP301   0.0000
    60 H5D1        -0.6770    -4.9423     7.4984 H            1 NDP301   0.0000
    61 H5D2        -0.4634    -5.6775     8.9408 H            1 NDP301   0.0000
    62 H4D         -2.7206    -5.8675     8.2815 H            1 NDP301   0.0000
    63 H3D         -1.4125    -8.4144     8.0916 H            1 NDP301   0.0000
    64 H16         -1.1505    -7.9422    10.1754 H            1 NDP301   0.0000
    65 H2D         -3.5477    -9.3203     7.8578 H            1 NDP301   0.0000
    66 H18         -5.4066    -7.9837     8.1377 H            1 NDP301   0.0000
    67 H1D         -4.1688    -7.4640     6.0803 H            1 NDP301   0.0000
    68 H2N         -4.4263    -8.9551     4.4257 H            1 NDP301   0.0000
    69 H7N1        -5.5757   -10.2500     1.4125 H            1 NDP301   0.0000
    70 H7N2        -5.2190    -9.1529     2.7045 H            1 NDP301   0.0000
    71 H4N         -1.3051   -11.2469     2.9818 H            1 NDP301   0.0000
    72 H5N          0.1771   -10.2358     4.6397 H            1 NDP301   0.0000
    73 H6N         -0.7124    -8.6096     6.1390 H            1 NDP301   0.0000
@<TRIPOS>BOND
     1    1    2      ar
     2    1    3      ar
     3    1    4       1
     4    1   23       1
     5    4    5       1
     6    5    6       1
     7    6    7       1
     8    6    8       1
     9    7   12       1
    10    8    9       1
    11    8   10       1
    12   10   11       1
    13   10   12       1
    14   11   45       1
    15   12   13       1
    16   13   14       1
    17   13   22       1
    18   14   15       2
    19   15   16       1
    20   16   17      ar
    21   16   22      ar
    22   17   18       1
    23   17   19      ar
    24   19   20      ar
    25   20   21      ar
    26   21   22      ar
    27   23   24       1
    28   24   25      ar
    29   24   26      ar
    30   24   27       1
    31   27   28       1
    32   28   29       1
    33   29   30       1
    34   29   31       1
    35   30   35       1
    36   31   32       1
    37   31   33       1
    38   33   34       1
    39   33   35       1
    40   35   36       1
    41   36   37      ar
    42   36   44      ar
    43   37   38      ar
    44   38   39       1
    45   38   42      ar
    46   39   40       2
    47   39   41      am
    48   42   43      ar
    49   43   44      ar
    50   45   46      ar
    51   45   47      ar
    52   45   48      ar
    53   43   72       1
    54    5   49       1
    55    5   50       1
    56    6   51       1
    57    8   52       1
    58    9   53       1
    59   10   54       1
    60   12   55       1
    61   14   56       1
    62   18   57       1
    63   18   58       1
    64   20   59       1
    65   44   73       1
    66   28   60       1
    67   28   61       1
    68   29   62       1
    69   31   63       1
    70   32   64       1
    71   33   65       1
    72   34   66       1
    73   35   67       1
    74   37   68       1
    75   41   69       1
    76   41   70       1
    77   42   71       1
@<TRIPOS>SUBSTRUCTURE
     1 NDP301      1 GROUP             4 A     NDP     0 **** NDP A 301
