@<TRIPOS>MOLECULE
3g6w_GTP_3_ligand
   44    46     1     0     0
SMALL
NO_CHARGES


@<TRIPOS>ATOM
     1 PG         -11.4970     6.8490     9.1250 P.3          1 GTP301   0.0000
     2 O1G        -12.7110     7.3270     9.8680 O.co2        1 GTP301   0.0000
     3 O2G        -11.6030     5.5020     8.4800 O.co2        1 GTP301  -1.0000
     4 O3G        -10.3650     6.8590    10.0590 O.co2        1 GTP301  -1.0000
     5 O3B        -11.2130     7.8790     8.0250 O.3          1 GTP301   0.0000
     6 PB          -9.9190     8.0290     7.1390 P.3          1 GTP301   0.0000
     7 O1B         -8.7480     7.6430     7.9410 O.co2        1 GTP301   0.0000
     8 O2B         -9.8120     9.4230     6.6470 O.co2        1 GTP301  -1.0000
     9 O3A        -10.1040     7.0330     5.9730 O.3          1 GTP301   0.0000
    10 PA          -9.0960     6.0650     5.2200 P.3          1 GTP301   0.0000
    11 O1A         -7.7380     6.2130     5.8610 O.co2        1 GTP301   0.0000
    12 O2A         -9.1490     6.4430     3.7800 O.co2        1 GTP301  -1.0000
    13 O5'         -9.7550     4.6330     5.5180 O.3          1 GTP301   0.0000
    14 C5'        -11.1150     4.3160     5.2580 C.3          1 GTP301   0.0000
    15 C4'        -11.3700     2.8530     5.4570 C.3          1 GTP301   0.0000
    16 O4'        -10.2450     2.0460     5.0160 O.3          1 GTP301   0.0000
    17 C3'        -11.6500     2.4340     6.9080 C.3          1 GTP301   0.0000
    18 O3'        -13.0600     2.3810     7.1800 O.3          1 GTP301   0.0000
    19 C2'        -10.9130     1.1170     7.0650 C.3          1 GTP301   0.0000
    20 O2'        -11.8250    -0.0160     7.0440 O.3          1 GTP301   0.0000
    21 C1'         -9.9420     1.0040     5.9450 C.3          1 GTP301   0.0000
    22 N9          -8.5120     1.1900     6.3050 N.pl3        1 GTP301   0.0000
    23 C8          -7.8220     2.3840     6.4800 C.2          1 GTP301   0.0000
    24 N7          -6.5650     2.2500     6.7570 N.2          1 GTP301   0.0000
    25 C5          -6.3750     0.8840     6.7660 C.2          1 GTP301   0.0000
    26 C6          -5.1650     0.0860     6.9820 C.2          1 GTP301   0.0000
    27 O6          -4.0070     0.4610     7.1960 O.2          1 GTP301   0.0000
    28 N1          -5.4350    -1.3310     6.9260 N.2          1 GTP301   0.0000
    29 C2          -6.6980    -1.8880     6.6850 C.2          1 GTP301   0.0000
    30 N2          -6.7590    -3.2160     6.6450 N.pl3        1 GTP301   0.0000
    31 N3          -7.8060    -1.1580     6.4890 N.pl3        1 GTP301   0.0000
    32 C4          -7.5850     0.2170     6.5220 C.2          1 GTP301   0.0000
    33 H5'1       -11.3336     4.5610     4.3134 H            1 GTP301   0.0000
    34 H5'2       -11.6978     4.8377     5.8811 H            1 GTP301   0.0000
    35 H4'        -12.1648     2.6011     4.9049 H            1 GTP301   0.0000
    36 H3'        -11.2332     3.1066     7.5194 H            1 GTP301   0.0000
    37 H5         -13.5681     2.6315     6.3559 H            1 GTP301   0.0000
    38 H2'        -10.4148     1.1211     7.9320 H            1 GTP301   0.0000
    39 H7         -12.7624     0.3127     6.9288 H            1 GTP301   0.0000
    40 H1'        -10.0570     0.1177     5.4963 H            1 GTP301   0.0000
    41 H9          -8.2630     3.2777     6.3981 H            1 GTP301   0.0000
    42 H10         -7.6332    -3.6715     6.4767 H            1 GTP301   0.0000
    43 H11         -5.9307    -3.7590     6.7833 H            1 GTP301   0.0000
    44 H12         -8.7070    -1.5631     6.3336 H            1 GTP301   0.0000
@<TRIPOS>BOND
     1    1    2      ar
     2    1    3      ar
     3    1    4      ar
     4    1    5       1
     5    5    6       1
     6    6    7      ar
     7    6    8      ar
     8    6    9       1
     9    9   10       1
    10   10   11      ar
    11   10   12      ar
    12   10   13       1
    13   13   14       1
    14   14   15       1
    15   15   16       1
    16   15   17       1
    17   16   21       1
    18   17   18       1
    19   17   19       1
    20   19   20       1
    21   19   21       1
    22   21   22       1
    23   22   23       1
    24   22   32       1
    25   23   24       2
    26   24   25       1
    27   25   26       1
    28   25   32       2
    29   26   27       2
    30   26   28       1
    31   28   29       2
    32   29   30       1
    33   29   31       1
    34   31   32       1
    35   30   43       1
    36   30   42       1
    37   21   40       1
    38   23   41       1
    39   14   33       1
    40   14   34       1
    41   15   35       1
    42   17   36       1
    43   18   37       1
    44   19   38       1
    45   20   39       1
    46   31   44       1
@<TRIPOS>SUBSTRUCTURE
     1 GTP301      1 GROUP             4 D     GTP     0 **** GTP D 301
