@<TRIPOS>MOLECULE
2hpv_FMN_4_ligand
   50    52     1     0     0
SMALL
NO_CHARGES


@<TRIPOS>ATOM
     1 N1          47.7940    73.3960    85.1600 N.2          1 FMN1203   0.0000
     2 C2          46.6600    72.6650    85.4360 C.2          1 FMN1203   0.0000
     3 O2          46.1550    72.7250    86.5680 O.2          1 FMN1203   0.0000
     4 N3          46.0580    71.8690    84.4530 N.pl3        1 FMN1203   0.0000
     5 C4          46.6090    71.7860    83.1940 C.2          1 FMN1203   0.0000
     6 O4          46.2370    70.8100    82.5160 O.2          1 FMN1203   0.0000
     7 C4A         47.7630    72.5220    82.9020 C.2          1 FMN1203   0.0000
     8 N5          48.3480    72.5130    81.6570 N.2          1 FMN1203   0.0000
     9 C5A         49.4900    73.2380    81.3790 C.ar         1 FMN1203   0.0000
    10 C6          50.0690    73.1870    80.1040 C.ar         1 FMN1203   0.0000
    11 C7          51.2310    73.9150    79.8150 C.ar         1 FMN1203   0.0000
    12 C7M         51.9850    73.5310    78.5520 C.3          1 FMN1203   0.0000
    13 C8          51.8050    74.7440    80.8350 C.ar         1 FMN1203   0.0000
    14 C8M         53.1100    75.4810    80.6840 C.3          1 FMN1203   0.0000
    15 C9          51.2210    74.7680    82.1020 C.ar         1 FMN1203   0.0000
    16 C9A         50.0720    74.0240    82.3830 C.ar         1 FMN1203   0.0000
    17 N10         49.4890    74.0640    83.6490 N.pl3        1 FMN1203   0.0000
    18 C10         48.3540    73.3400    83.9060 C.2          1 FMN1203   0.0000
    19 C1'         50.0650    74.9560    84.7260 C.3          1 FMN1203   0.0000
    20 C2'         51.2320    74.2620    85.4460 C.3          1 FMN1203   0.0000
    21 O2'         50.8660    72.9590    85.7990 O.3          1 FMN1203   0.0000
    22 C3'         51.6380    74.9890    86.7320 C.3          1 FMN1203   0.0000
    23 O3'         52.0000    76.3030    86.4020 O.3          1 FMN1203   0.0000
    24 C4'         52.8030    74.2970    87.4550 C.3          1 FMN1203   0.0000
    25 O4'         53.0000    74.8450    88.7660 O.3          1 FMN1203   0.0000
    26 C5'         54.0980    74.3090    86.6760 C.3          1 FMN1203   0.0000
    27 O5'         55.0110    73.4670    87.3810 O.3          1 FMN1203   0.0000
    28 P           56.5610    73.7410    87.2760 P.3          1 FMN1203   0.0000
    29 O1P         56.9430    73.8840    85.8010 O.co2        1 FMN1203   0.0000
    30 O2P         57.0110    75.0600    87.8490 O.co2        1 FMN1203  -1.0000
    31 O3P         57.3880    72.6300    87.8900 O.co2        1 FMN1203  -1.0000
    32 H1          45.2247    71.3590    84.6666 H            1 FMN1203   0.0000
    33 H2          49.6482    72.6247    79.3922 H            1 FMN1203   0.0000
    34 H7M1        52.7899    74.1162    78.4534 H            1 FMN1203   0.0000
    35 H7M2        52.2731    72.5754    78.6133 H            1 FMN1203   0.0000
    36 H7M3        51.3880    73.6489    77.7585 H            1 FMN1203   0.0000
    37 H8M1        53.3040    75.9905    81.5223 H            1 FMN1203   0.0000
    38 H8M2        53.8456    74.8251    80.5148 H            1 FMN1203   0.0000
    39 H8M3        53.0467    76.1167    79.9146 H            1 FMN1203   0.0000
    40 H9          51.6320    75.3275    82.8217 H            1 FMN1203   0.0000
    41 H1'1        49.3499    75.1693    85.3917 H            1 FMN1203   0.0000
    42 H1'2        50.3949    75.8026    84.3083 H            1 FMN1203   0.0000
    43 H2'         52.0190    74.2243    84.8302 H            1 FMN1203   0.0000
    44 H13         50.6335    72.4431    84.9745 H            1 FMN1203   0.0000
    45 H3'         50.8500    75.0178    87.3471 H            1 FMN1203   0.0000
    46 H15         51.1936    76.8926    86.4486 H            1 FMN1203   0.0000
    47 H4'         52.5438    73.3387    87.5753 H            1 FMN1203   0.0000
    48 H17         53.3675    74.1385    89.3708 H            1 FMN1203   0.0000
    49 H5'1        54.4591    75.2400    86.6227 H            1 FMN1203   0.0000
    50 H5'2        53.9475    73.9565    85.7524 H            1 FMN1203   0.0000
@<TRIPOS>BOND
     1    1    2       1
     2    1   18       2
     3    2    3       2
     4    2    4       1
     5    4    5       1
     6    5    6       2
     7    5    7       1
     8    7    8       2
     9    7   18       1
    10    8    9       1
    11    9   10      ar
    12    9   16      ar
    13   10   11      ar
    14   11   12       1
    15   11   13      ar
    16   13   14       1
    17   13   15      ar
    18   15   16      ar
    19   16   17       1
    20   17   18       1
    21   17   19       1
    22   19   20       1
    23   20   21       1
    24   20   22       1
    25   22   23       1
    26   22   24       1
    27   24   25       1
    28   24   26       1
    29   26   27       1
    30   27   28       1
    31   28   29      ar
    32   28   30      ar
    33   28   31      ar
    34    4   32       1
    35   10   33       1
    36   12   34       1
    37   12   35       1
    38   12   36       1
    39   14   37       1
    40   14   38       1
    41   14   39       1
    42   15   40       1
    43   19   41       1
    44   19   42       1
    45   20   43       1
    46   21   44       1
    47   22   45       1
    48   23   46       1
    49   24   47       1
    50   25   48       1
    51   26   49       1
    52   26   50       1
@<TRIPOS>SUBSTRUCTURE
     1 FMN1203     1 GROUP             4 D     FMN     0 **** FMN D1203
