@<TRIPOS>MOLECULE
5mht_SAH_1_ligand
   46    48     1     0     0
SMALL
NO_CHARGES


@<TRIPOS>ATOM
     1 N          -18.2450    32.0950    82.2430 N.4          1 SAH328   1.0000
     2 CA         -18.8630    31.4020    83.3750 C.3          1 SAH328   0.0000
     3 CB         -18.6890    32.1420    84.7160 C.3          1 SAH328   0.0000
     4 CG         -17.2430    32.3390    85.1520 C.3          1 SAH328   0.0000
     5 SD         -17.0550    33.1660    86.7770 S.3          1 SAH328   0.0000
     6 C          -20.3460    31.2850    83.0390 C.2          1 SAH328   0.0000
     7 O          -20.6690    31.0360    81.8010 O.co2        1 SAH328   0.0000
     8 OXT        -21.1370    30.9890    84.0330 O.co2        1 SAH328  -1.0000
     9 C5'        -15.6160    32.3800    87.5490 C.3          1 SAH328   0.0000
    10 C4'        -15.6780    30.8790    87.9450 C.3          1 SAH328   0.0000
    11 O4'        -14.4020    30.3910    88.3390 O.3          1 SAH328   0.0000
    12 C3'        -16.6190    30.6230    89.1590 C.3          1 SAH328   0.0000
    13 O3'        -17.6560    29.7240    88.7220 O.3          1 SAH328   0.0000
    14 C2'        -15.6310    30.0450    90.1990 C.3          1 SAH328   0.0000
    15 O2'        -16.3490    29.1530    91.0720 O.3          1 SAH328   0.0000
    16 C1'        -14.5670    29.3510    89.3060 C.3          1 SAH328   0.0000
    17 N9         -13.2290    29.2110    89.9790 N.pl3        1 SAH328   0.0000
    18 C8         -12.6730    30.1760    90.8000 C.2          1 SAH328   0.0000
    19 N7         -11.5160    29.8830    91.2690 N.2          1 SAH328   0.0000
    20 C5         -11.2400    28.6120    90.7380 C.ar         1 SAH328   0.0000
    21 C6         -10.1090    27.7420    90.9070 C.ar         1 SAH328   0.0000
    22 N6          -9.0970    28.0280    91.7670 N.pl3        1 SAH328   0.0000
    23 N1         -10.1350    26.5610    90.2510 N.ar         1 SAH328   0.0000
    24 C2         -11.2310    26.2610    89.4990 C.ar         1 SAH328   0.0000
    25 N3         -12.3450    26.9690    89.2780 N.ar         1 SAH328   0.0000
    26 C4         -12.2820    28.1760    89.9390 C.ar         1 SAH328   0.0000
    27 H1         -17.2998    31.7858    82.1386 H            1 SAH328   0.0000
    28 H2         -18.7564    31.8915    81.4081 H            1 SAH328   0.0000
    29 HA         -18.4707    30.4854    83.4526 H            1 SAH328   0.0000
    30 HB1        -19.1591    31.6164    85.4250 H            1 SAH328   0.0000
    31 HB2        -19.1144    33.0431    84.6319 H            1 SAH328   0.0000
    32 HG1        -16.7801    32.8950    84.4616 H            1 SAH328   0.0000
    33 HG2        -16.8061    31.4410    85.2046 H            1 SAH328   0.0000
    34 H5'1       -15.4195    32.8924    88.3849 H            1 SAH328   0.0000
    35 H5'2       -14.8535    32.4799    86.9098 H            1 SAH328   0.0000
    36 H4'        -16.0031    30.3481    87.1624 H            1 SAH328   0.0000
    37 H3'        -17.0126    31.4819    89.4867 H            1 SAH328   0.0000
    38 H12        -17.2451    28.8667    88.4119 H            1 SAH328   0.0000
    39 H2'        -15.2119    30.7838    90.7269 H            1 SAH328   0.0000
    40 H14        -16.3261    28.2272    90.6947 H            1 SAH328   0.0000
    41 H1'        -14.8931    28.4947    88.9054 H            1 SAH328   0.0000
    42 H16        -13.1377    31.0359    91.0114 H            1 SAH328   0.0000
    43 H17         -8.3254    27.3984    91.8583 H            1 SAH328   0.0000
    44 H18         -9.1236    28.8681    92.3088 H            1 SAH328   0.0000
    45 H19        -11.1977    25.3729    89.0405 H            1 SAH328   0.0000
    46 H20        -18.2567    33.0810    82.4091 H            1 SAH328   0.0000
@<TRIPOS>BOND
     1    1    2       1
     2    2    3       1
     3    2    6       1
     4    3    4       1
     5    4    5       1
     6    5    9       1
     7    6    7      ar
     8    6    8      ar
     9    9   10       1
    10   10   11       1
    11   10   12       1
    12   11   16       1
    13   12   13       1
    14   12   14       1
    15   14   15       1
    16   14   16       1
    17   16   17       1
    18   17   18       1
    19   17   26       1
    20   18   19       2
    21   19   20       1
    22   20   21      ar
    23   20   26      ar
    24   21   22       1
    25   21   23      ar
    26   23   24      ar
    27   24   25      ar
    28   25   26      ar
    29    1   27       1
    30    1   28       1
    31    2   29       1
    32    3   30       1
    33    3   31       1
    34    4   32       1
    35    4   33       1
    36    1   46       1
    37    9   34       1
    38    9   35       1
    39   10   36       1
    40   12   37       1
    41   13   38       1
    42   14   39       1
    43   15   40       1
    44   16   41       1
    45   18   42       1
    46   22   43       1
    47   22   44       1
    48   24   45       1
@<TRIPOS>SUBSTRUCTURE
     1 SAH328      1 GROUP             4 A     SAH     0 **** SAH A 328
