@<TRIPOS>MOLECULE
1rzu_ADP_2_ligand
   39    41     1     0     0
SMALL
NO_CHARGES


@<TRIPOS>ATOM
     1 PB           3.5190    45.9900    25.7300 P.3          1 ADP2531   0.0000
     2 O1B          2.8270    47.2400    25.2050 O.co2        1 ADP2531   0.0000
     3 O2B          4.7550    45.5260    24.9680 O.co2        1 ADP2531  -1.0000
     4 O3B          3.4810    45.8610    27.2420 O.co2        1 ADP2531  -1.0000
     5 PA           1.4310    44.6320    26.3010 P.3          1 ADP2531   0.0000
     6 O1A          0.9560    45.8360    27.0520 O.co2        1 ADP2531   0.0000
     7 O2A          0.6570    43.3020    26.3550 O.co2        1 ADP2531  -1.0000
     8 O3A          2.5130    44.8780    25.2110 O.3          1 ADP2531   0.0000
     9 O5'          0.5230    44.9070    24.9960 O.3          1 ADP2531   0.0000
    10 C5'          0.7040    44.0850    23.8570 C.3          1 ADP2531   0.0000
    11 C4'         -0.3650    44.2030    22.7800 C.3          1 ADP2531   0.0000
    12 O4'         -1.4600    43.3240    23.0320 O.3          1 ADP2531   0.0000
    13 C3'         -0.9480    45.5880    22.6900 C.3          1 ADP2531   0.0000
    14 O3'         -1.2920    45.7780    21.3520 O.3          1 ADP2531   0.0000
    15 C2'         -2.1280    45.4890    23.6170 C.3          1 ADP2531   0.0000
    16 O2'         -3.1230    46.4810    23.4120 O.3          1 ADP2531   0.0000
    17 C1'         -2.6160    44.0610    23.3820 C.3          1 ADP2531   0.0000
    18 N9          -3.3830    43.6120    24.5460 N.pl3        1 ADP2531   0.0000
    19 C8          -3.2560    44.0940    25.8000 C.2          1 ADP2531   0.0000
    20 N7          -4.1690    43.5380    26.6110 N.2          1 ADP2531   0.0000
    21 C5          -4.8970    42.7250    25.8760 C.ar         1 ADP2531   0.0000
    22 C6          -6.0260    41.8830    26.2020 C.ar         1 ADP2531   0.0000
    23 N6          -6.4450    41.8630    27.5000 N.pl3        1 ADP2531   0.0000
    24 N1          -6.5530    41.1910    25.2030 N.ar         1 ADP2531   0.0000
    25 C2          -6.0690    41.2680    23.9430 C.ar         1 ADP2531   0.0000
    26 N3          -5.0340    42.0180    23.5710 N.ar         1 ADP2531   0.0000
    27 C4          -4.4310    42.7780    24.5090 C.ar         1 ADP2531   0.0000
    28 H5'1         0.7258    43.1339    24.1651 H            1 ADP2531   0.0000
    29 H5'2         1.5834    44.3219    23.4440 H            1 ADP2531   0.0000
    30 H4'          0.0405    43.9667    21.8970 H            1 ADP2531   0.0000
    31 H3'         -0.2961    46.2795    23.0012 H            1 ADP2531   0.0000
    32 H5          -1.6870    46.6893    21.2355 H            1 ADP2531   0.0000
    33 H2'         -1.7984    45.5604    24.5584 H            1 ADP2531   0.0000
    34 H7          -3.5816    46.6772    24.2787 H            1 ADP2531   0.0000
    35 H1'         -3.2289    44.0693    22.5919 H            1 ADP2531   0.0000
    36 H9          -2.5769    44.7705    26.0848 H            1 ADP2531   0.0000
    37 H10         -7.2227    41.2932    27.7656 H            1 ADP2531   0.0000
    38 H11         -5.9745    42.4181    28.1859 H            1 ADP2531   0.0000
    39 H12         -6.5218    40.7213    23.2386 H            1 ADP2531   0.0000
@<TRIPOS>BOND
     1    1    2      ar
     2    1    3      ar
     3    1    4      ar
     4    1    8       1
     5    5    6      ar
     6    5    7      ar
     7    5    8       1
     8    5    9       1
     9    9   10       1
    10   10   11       1
    11   11   12       1
    12   11   13       1
    13   12   17       1
    14   13   14       1
    15   13   15       1
    16   15   16       1
    17   15   17       1
    18   17   18       1
    19   18   19       1
    20   18   27       1
    21   19   20       2
    22   20   21       1
    23   21   22      ar
    24   21   27      ar
    25   22   23       1
    26   22   24      ar
    27   24   25      ar
    28   25   26      ar
    29   26   27      ar
    30   25   39       1
    31   23   38       1
    32   23   37       1
    33   10   28       1
    34   10   29       1
    35   11   30       1
    36   13   31       1
    37   14   32       1
    38   15   33       1
    39   16   34       1
    40   17   35       1
    41   19   36       1
@<TRIPOS>SUBSTRUCTURE
     1 ADP2531     1 GROUP             4 B     ADP     0 **** ADP B2531
