@<TRIPOS>MOLECULE
4o0m_ATP_2_ligand
   43    45     1     0     0
SMALL
NO_CHARGES


@<TRIPOS>ATOM
     1 PG         -16.5380    22.5040   -13.7550 P.3          1 ATP803   0.0000
     2 O1G        -15.3550    23.4250   -13.6020 O.co2        1 ATP803   0.0000
     3 O2G        -16.6460    21.8750   -15.1250 O.co2        1 ATP803  -1.0000
     4 O3G        -16.6900    21.5360   -12.6060 O.co2        1 ATP803  -1.0000
     5 PB         -17.7710    25.0210   -13.4190 P.3          1 ATP803   0.0000
     6 O1B        -17.5840    25.6940   -14.7530 O.co2        1 ATP803   0.0000
     7 O2B        -16.8180    25.2820   -12.2790 O.co2        1 ATP803  -1.0000
     8 O3B        -17.8610    23.4260   -13.6250 O.3          1 ATP803   0.0000
     9 PA         -19.5720    25.9320   -11.4400 P.3          1 ATP803   0.0000
    10 O1A        -21.0650    26.1200   -11.3850 O.co2        1 ATP803   0.0000
    11 O2A        -18.9390    24.9940   -10.4440 O.co2        1 ATP803  -1.0000
    12 O3A        -19.2500    25.4010   -12.9240 O.3          1 ATP803   0.0000
    13 O5'        -18.9110    27.3920   -11.2900 O.3          1 ATP803   0.0000
    14 C5'        -17.8800    27.6140   -10.3270 C.3          1 ATP803   0.0000
    15 C4'        -17.5930    29.1040   -10.1760 C.3          1 ATP803   0.0000
    16 O4'        -18.7120    29.7690    -9.5950 O.3          1 ATP803   0.0000
    17 C3'        -16.4040    29.3690    -9.2600 C.3          1 ATP803   0.0000
    18 O3'        -15.2830    29.8280   -10.0190 O.3          1 ATP803   0.0000
    19 C2'        -16.8460    30.4550    -8.3010 C.3          1 ATP803   0.0000
    20 O2'        -16.0360    31.6210    -8.4560 O.3          1 ATP803   0.0000
    21 C1'        -18.2720    30.7880    -8.6940 C.3          1 ATP803   0.0000
    22 N9         -19.1400    30.8660    -7.4880 N.pl3        1 ATP803   0.0000
    23 C8         -19.5970    29.8300    -6.7580 C.2          1 ATP803   0.0000
    24 N7         -20.3670    30.2610    -5.7260 N.2          1 ATP803   0.0000
    25 C5         -20.4080    31.6040    -5.7860 C.ar         1 ATP803   0.0000
    26 C6         -21.0410    32.6940    -5.0050 C.ar         1 ATP803   0.0000
    27 N6         -21.8030    32.4250    -3.9190 N.pl3        1 ATP803   0.0000
    28 N1         -20.8330    33.9650    -5.4120 N.ar         1 ATP803   0.0000
    29 C2         -20.0770    34.2480    -6.4870 C.ar         1 ATP803   0.0000
    30 N3         -19.4750    33.3120    -7.2400 N.ar         1 ATP803   0.0000
    31 C4         -19.5980    31.9960    -6.9460 C.ar         1 ATP803   0.0000
    32 H5'1       -17.0469    27.1481   -10.6251 H            1 ATP803   0.0000
    33 H5'2       -18.1707    27.2449    -9.4443 H            1 ATP803   0.0000
    34 H4'        -17.4083    29.4965   -11.0770 H            1 ATP803   0.0000
    35 H3'        -16.1640    28.5393    -8.7560 H            1 ATP803   0.0000
    36 H5         -15.5250    30.6752   -10.4919 H            1 ATP803   0.0000
    37 H2'        -16.8100    30.1257    -7.3575 H            1 ATP803   0.0000
    38 H7         -15.0812    31.3910    -8.2678 H            1 ATP803   0.0000
    39 H1'        -18.2849    31.6701    -9.1649 H            1 ATP803   0.0000
    40 H9         -19.3956    28.8697    -6.9509 H            1 ATP803   0.0000
    41 H10        -22.2220    33.1731    -3.4045 H            1 ATP803   0.0000
    42 H11        -21.9469    31.4782    -3.6313 H            1 ATP803   0.0000
    43 H12        -19.9560    35.2078    -6.7402 H            1 ATP803   0.0000
@<TRIPOS>BOND
     1    1    2      ar
     2    1    3      ar
     3    1    4      ar
     4    1    8       1
     5    5    6      ar
     6    5    7      ar
     7    5    8       1
     8    5   12       1
     9    9   10      ar
    10    9   11      ar
    11    9   12       1
    12    9   13       1
    13   13   14       1
    14   14   15       1
    15   15   16       1
    16   15   17       1
    17   16   21       1
    18   17   18       1
    19   17   19       1
    20   19   20       1
    21   19   21       1
    22   21   22       1
    23   22   23       1
    24   22   31       1
    25   23   24       2
    26   24   25       1
    27   25   26      ar
    28   25   31      ar
    29   26   27       1
    30   26   28      ar
    31   28   29      ar
    32   29   30      ar
    33   30   31      ar
    34   29   43       1
    35   27   42       1
    36   27   41       1
    37   23   40       1
    38   14   32       1
    39   14   33       1
    40   15   34       1
    41   17   35       1
    42   18   36       1
    43   19   37       1
    44   20   38       1
    45   21   39       1
@<TRIPOS>SUBSTRUCTURE
     1 ATP803      1 GROUP             4 A     ATP     0 **** ATP A 803
