@<TRIPOS>MOLECULE
2ewm_NAD_2_ligand
   70    74     1     0     0
SMALL
NO_CHARGES


@<TRIPOS>ATOM
     1 PA          81.2730   -56.2640  -132.8940 P.3          1 NAD256   0.0000
     2 O1A         81.7620   -57.5870  -132.4790 O.co2        1 NAD256   0.0000
     3 O2A         81.5110   -55.8160  -134.3320 O.co2        1 NAD256  -1.0000
     4 O5B         81.8620   -55.1560  -131.9010 O.3          1 NAD256   0.0000
     5 C5B         81.2040   -53.9260  -131.6070 C.3          1 NAD256   0.0000
     6 C4B         81.3910   -52.9030  -132.7370 C.3          1 NAD256   0.0000
     7 O4B         81.1000   -51.6420  -132.1420 O.3          1 NAD256   0.0000
     8 C3B         82.7900   -52.8040  -133.3560 C.3          1 NAD256   0.0000
     9 O3B         82.7190   -52.6980  -134.7770 O.3          1 NAD256   0.0000
    10 C2B         83.3810   -51.5720  -132.6840 C.3          1 NAD256   0.0000
    11 O2B         84.3960   -50.9010  -133.4000 O.3          1 NAD256   0.0000
    12 C1B         82.1300   -50.7230  -132.4910 C.3          1 NAD256   0.0000
    13 N9A         82.2060   -49.6480  -131.4810 N.pl3        1 NAD256   0.0000
    14 C8A         82.4470   -49.7170  -130.1300 C.2          1 NAD256   0.0000
    15 N7A         82.5270   -48.4570  -129.6390 N.2          1 NAD256   0.0000
    16 C5A         82.3180   -47.5810  -130.6450 C.ar         1 NAD256   0.0000
    17 C6A         82.2880   -46.1730  -130.7450 C.ar         1 NAD256   0.0000
    18 N6A         82.5090   -45.4020  -129.6910 N.pl3        1 NAD256   0.0000
    19 N1A         82.0290   -45.5740  -131.9790 N.ar         1 NAD256   0.0000
    20 C2A         81.7890   -46.3590  -133.1040 C.ar         1 NAD256   0.0000
    21 N3A         81.8370   -47.7440  -133.0230 N.ar         1 NAD256   0.0000
    22 C4A         82.0940   -48.3310  -131.8110 C.ar         1 NAD256   0.0000
    23 O3          79.6920   -56.1870  -132.5980 O.3          1 NAD256   0.0000
    24 PN          78.6880   -57.2660  -131.9440 P.3          1 NAD256   0.0000
    25 O1N         79.3730   -57.9630  -130.8280 O.co2        1 NAD256   0.0000
    26 O2N         78.2740   -58.2440  -132.9620 O.co2        1 NAD256  -1.0000
    27 O5D         77.3920   -56.5070  -131.3810 O.3          1 NAD256   0.0000
    28 C5D         77.5850   -55.3770  -130.5580 C.3          1 NAD256   0.0000
    29 C4D         76.2750   -54.8330  -129.9850 C.3          1 NAD256   0.0000
    30 O4D         75.3970   -55.8870  -129.6310 O.3          1 NAD256   0.0000
    31 C3D         76.4740   -54.0030  -128.7260 C.3          1 NAD256   0.0000
    32 O3D         75.5150   -52.9590  -128.6930 O.3          1 NAD256   0.0000
    33 C2D         76.2690   -55.0040  -127.6080 C.3          1 NAD256   0.0000
    34 O2D         75.9040   -54.3990  -126.3920 O.3          1 NAD256   0.0000
    35 C1D         75.1910   -55.9140  -128.2230 C.3          1 NAD256   0.0000
    36 N1N         75.1280   -57.3280  -127.7540 N.ar         1 NAD256   1.0000
    37 C2N         76.0570   -58.2300  -128.2740 C.ar         1 NAD256   0.0000
    38 C3N         76.0130   -59.5770  -127.8920 C.ar         1 NAD256   0.0000
    39 C7N         76.9920   -60.5450  -128.4940 C.2          1 NAD256   0.0000
    40 O7N         76.9130   -61.8570  -128.1040 O.2          1 NAD256   0.0000
    41 N7N         77.9170   -60.2000  -129.3740 N.am         1 NAD256   0.0000
    42 C4N         75.0330   -59.9910  -126.9520 C.ar         1 NAD256   0.0000
    43 C5N         74.1010   -59.0660  -126.4290 C.ar         1 NAD256   0.0000
    44 C6N         74.1560   -57.7280  -126.8500 C.ar         1 NAD256   0.0000
    45 H5B1        81.5825   -53.5491  -130.7616 H            1 NAD256   0.0000
    46 H5B2        80.2270   -54.1011  -131.4858 H            1 NAD256   0.0000
    47 H4B         80.7246   -53.0866  -133.4596 H            1 NAD256   0.0000
    48 H3B         83.3249   -53.6112  -133.1063 H            1 NAD256   0.0000
    49 H5          82.6677   -51.7338  -135.0372 H            1 NAD256   0.0000
    50 H2B         83.7366   -51.8325  -131.7864 H            1 NAD256   0.0000
    51 H7          83.9847   -50.2029  -133.9860 H            1 NAD256   0.0000
    52 H1B         81.8946   -50.3092  -133.3704 H            1 NAD256   0.0000
    53 H8A         82.5468   -50.5577  -129.5977 H            1 NAD256   0.0000
    54 H6A1        82.4828   -44.4068  -129.7852 H            1 NAD256   0.0000
    55 H6A2        82.7021   -45.8151  -128.8010 H            1 NAD256   0.0000
    56 H2A         81.5801   -45.9209  -133.9783 H            1 NAD256   0.0000
    57 H5D1        78.0205   -54.6577  -131.0992 H            1 NAD256   0.0000
    58 H5D2        78.1843   -55.6324  -129.7993 H            1 NAD256   0.0000
    59 H4D         75.8321   -54.2646  -130.6784 H            1 NAD256   0.0000
    60 H3D         77.4008   -53.6287  -128.6958 H            1 NAD256   0.0000
    61 H17         74.6930   -53.2763  -128.2200 H            1 NAD256   0.0000
    62 H2D         77.1096   -55.5295  -127.4766 H            1 NAD256   0.0000
    63 H19         76.6230   -53.7657  -126.1057 H            1 NAD256   0.0000
    64 H1D         74.3016   -55.4951  -128.0398 H            1 NAD256   0.0000
    65 H2N         76.7535   -57.9151  -128.9188 H            1 NAD256   0.0000
    66 H7N1        78.5413   -60.8902  -129.7398 H            1 NAD256   0.0000
    67 H7N2        77.9922   -59.2489  -129.6736 H            1 NAD256   0.0000
    68 H4N         75.0018   -60.9460  -126.6571 H            1 NAD256   0.0000
    69 H5N         73.4114   -59.3609  -125.7676 H            1 NAD256   0.0000
    70 H6N         73.4954   -57.0647  -126.4985 H            1 NAD256   0.0000
@<TRIPOS>BOND
     1    1    2      ar
     2    1    3      ar
     3    1    4       1
     4    1   23       1
     5    4    5       1
     6    5    6       1
     7    6    7       1
     8    6    8       1
     9    7   12       1
    10    8    9       1
    11    8   10       1
    12   10   11       1
    13   10   12       1
    14   12   13       1
    15   13   14       1
    16   13   22       1
    17   14   15       2
    18   15   16       1
    19   16   17      ar
    20   16   22      ar
    21   17   18       1
    22   17   19      ar
    23   19   20      ar
    24   20   21      ar
    25   21   22      ar
    26   23   24       1
    27   24   25      ar
    28   24   26      ar
    29   24   27       1
    30   27   28       1
    31   28   29       1
    32   29   30       1
    33   29   31       1
    34   30   35       1
    35   31   32       1
    36   31   33       1
    37   33   34       1
    38   33   35       1
    39   35   36       1
    40   36   37      ar
    41   36   44      ar
    42   37   38      ar
    43   38   39       1
    44   38   42      ar
    45   39   40       2
    46   39   41      am
    47   42   43      ar
    48   43   44      ar
    49   44   70       1
    50    5   45       1
    51    5   46       1
    52    6   47       1
    53    8   48       1
    54    9   49       1
    55   10   50       1
    56   11   51       1
    57   12   52       1
    58   14   53       1
    59   18   54       1
    60   18   55       1
    61   20   56       1
    62   43   69       1
    63   28   57       1
    64   28   58       1
    65   29   59       1
    66   31   60       1
    67   32   61       1
    68   33   62       1
    69   34   63       1
    70   35   64       1
    71   37   65       1
    72   41   66       1
    73   41   67       1
    74   42   68       1
@<TRIPOS>SUBSTRUCTURE
     1 NAD256      1 GROUP             4 B     NAD     0 **** NAD B 256
