@<TRIPOS>MOLECULE
2y4k_GDP_1_ligand
   40    42     1     0     0
SMALL
NO_CHARGES


@<TRIPOS>ATOM
     1 PB          38.7830   -45.1400    -5.0610 P.3          1 GDP401   0.0000
     2 O1B         40.0050   -45.0260    -5.9600 O.co2        1 GDP401   0.0000
     3 O2B         37.5030   -45.1440    -5.9110 O.co2        1 GDP401  -1.0000
     4 O3B         38.8910   -46.4030    -4.2060 O.co2        1 GDP401  -1.0000
     5 O3A         38.8380   -43.8540    -4.0610 O.3          1 GDP401   0.0000
     6 PA          38.2470   -42.3980    -4.3810 P.3          1 GDP401   0.0000
     7 O1A         39.3730   -41.3870    -4.3950 O.co2        1 GDP401   0.0000
     8 O2A         37.4240   -42.3570    -5.6590 O.co2        1 GDP401  -1.0000
     9 O5'         37.3060   -42.3080    -3.0960 O.3          1 GDP401   0.0000
    10 C5'         36.3430   -43.3150    -2.7800 C.3          1 GDP401   0.0000
    11 C4'         35.0690   -42.6220    -2.2820 C.3          1 GDP401   0.0000
    12 O4'         35.1740   -42.1100    -0.9360 O.3          1 GDP401   0.0000
    13 C3'         34.7020   -41.4180    -3.1230 C.3          1 GDP401   0.0000
    14 O3'         33.2760   -41.3420    -3.1140 O.3          1 GDP401   0.0000
    15 C2'         35.3250   -40.2590    -2.3480 C.3          1 GDP401   0.0000
    16 O2'         34.6680   -39.0310    -2.5850 O.3          1 GDP401   0.0000
    17 C1'         35.1380   -40.6780    -0.9100 C.3          1 GDP401   0.0000
    18 N9          36.2020   -40.2260     0.0050 N.pl3        1 GDP401   0.0000
    19 C8          37.5430   -40.4200    -0.1190 C.2          1 GDP401   0.0000
    20 N7          38.2130   -39.9060     0.9530 N.2          1 GDP401   0.0000
    21 C5          37.2860   -39.3860     1.7830 C.2          1 GDP401   0.0000
    22 C6          37.2950   -38.6690     3.0830 C.2          1 GDP401   0.0000
    23 O6          38.3640   -38.4450     3.6770 O.2          1 GDP401   0.0000
    24 N1          36.1190   -38.3050     3.6070 N.pl3        1 GDP401   0.0000
    25 C2          34.9350   -38.5370     2.9840 C.2          1 GDP401   0.0000
    26 N2          33.7820   -38.1200     3.5810 N.pl3        1 GDP401   0.0000
    27 N3          34.8530   -39.1770     1.7870 N.2          1 GDP401   0.0000
    28 C4          35.9660   -39.6010     1.1550 C.2          1 GDP401   0.0000
    29 H5'1        36.7030   -43.9151    -2.0657 H            1 GDP401   0.0000
    30 H5'2        36.1375   -43.8547    -3.5964 H            1 GDP401   0.0000
    31 H4'         34.3146   -43.2775    -2.3164 H            1 GDP401   0.0000
    32 H3'         35.0668   -41.4856    -4.0516 H            1 GDP401   0.0000
    33 H5          32.9771   -40.7778    -2.3444 H            1 GDP401   0.0000
    34 H2'         36.2983   -40.1799    -2.5634 H            1 GDP401   0.0000
    35 H7          35.0937   -38.5701    -3.3637 H            1 GDP401   0.0000
    36 H1'         34.2480   -40.3659    -0.5776 H            1 GDP401   0.0000
    37 H9          37.9797   -40.8784    -0.8930 H            1 GDP401   0.0000
    38 H10         36.1117   -37.8431     4.4939 H            1 GDP401   0.0000
    39 H11         32.9014   -38.2827     3.1360 H            1 GDP401   0.0000
    40 H12         33.8171   -37.6515     4.4638 H            1 GDP401   0.0000
@<TRIPOS>BOND
     1    1    2      ar
     2    1    3      ar
     3    1    4      ar
     4    1    5       1
     5    5    6       1
     6    6    7      ar
     7    6    8      ar
     8    6    9       1
     9    9   10       1
    10   10   11       1
    11   11   12       1
    12   11   13       1
    13   12   17       1
    14   13   14       1
    15   13   15       1
    16   15   16       1
    17   15   17       1
    18   17   18       1
    19   18   19       1
    20   18   28       1
    21   19   20       2
    22   20   21       1
    23   21   22       1
    24   21   28       2
    25   22   23       2
    26   22   24       1
    27   24   25       1
    28   25   26       1
    29   25   27       2
    30   27   28       1
    31   26   40       1
    32   26   39       1
    33   24   38       1
    34   10   29       1
    35   10   30       1
    36   11   31       1
    37   13   32       1
    38   14   33       1
    39   15   34       1
    40   16   35       1
    41   17   36       1
    42   19   37       1
@<TRIPOS>SUBSTRUCTURE
     1 GDP401      1 GROUP             4 A     GDP     0 **** GDP A 401
