@<TRIPOS>MOLECULE
2nyu_SAM_2_ligand
   50    52     1     0     0
SMALL
NO_CHARGES


@<TRIPOS>ATOM
     1 N           17.9960    25.6640     1.9130 N.4          1 SAM201   1.0000
     2 CA          19.3200    26.3030     1.9500 C.3          1 SAM201   0.0000
     3 C           19.4000    27.3940     0.9240 C.2          1 SAM201   0.0000
     4 O           20.3060    28.1940     0.9140 O.co2        1 SAM201   0.0000
     5 OXT         18.5180    27.4510     0.0150 O.co2        1 SAM201  -1.0000
     6 CB          20.3620    25.2000     1.7310 C.3          1 SAM201   0.0000
     7 CG          20.4690    24.4590     3.0970 C.3          1 SAM201   0.0000
     8 SD          21.9070    23.3400     3.2380 S.3          1 SAM201   1.0000
     9 CE          21.2550    21.9380     2.3330 C.3          1 SAM201   0.0000
    10 C5'         21.6670    22.4940     4.8240 C.3          1 SAM201   0.0000
    11 C4'         21.9300    23.3830     6.0000 C.3          1 SAM201   0.0000
    12 O4'         21.4450    22.7410     7.1570 O.3          1 SAM201   0.0000
    13 C3'         23.4480    23.5900     6.2720 C.3          1 SAM201   0.0000
    14 O3'         23.7360    24.9380     5.9650 O.3          1 SAM201   0.0000
    15 C2'         23.5670    23.2260     7.7460 C.3          1 SAM201   0.0000
    16 O2'         24.4710    24.0220     8.4970 O.3          1 SAM201   0.0000
    17 C1'         22.1190    23.3090     8.2470 C.3          1 SAM201   0.0000
    18 N9          21.9250    22.5520     9.4570 N.pl3        1 SAM201   0.0000
    19 C8          22.1370    21.2270     9.6710 C.2          1 SAM201   0.0000
    20 N7          21.7810    20.9590    10.9420 N.2          1 SAM201   0.0000
    21 C5          21.3540    22.0860    11.5010 C.ar         1 SAM201   0.0000
    22 C6          20.9360    22.3470    12.8020 C.ar         1 SAM201   0.0000
    23 N6          20.8870    21.3350    13.7060 N.pl3        1 SAM201   0.0000
    24 N1          20.5460    23.6290    13.0720 N.ar         1 SAM201   0.0000
    25 C2          20.6490    24.6310    12.1340 C.ar         1 SAM201   0.0000
    26 N3          21.0960    24.3470    10.8590 N.ar         1 SAM201   0.0000
    27 C4          21.4350    23.0900    10.5940 C.ar         1 SAM201   0.0000
    28 H1          18.1008    24.6920     1.7029 H            1 SAM201   0.0000
    29 H2          17.5514    25.7666     2.8028 H            1 SAM201   0.0000
    30 HA          19.4595    26.7023     2.8561 H            1 SAM201   0.0000
    31 HB1         21.2442    25.5968     1.4777 H            1 SAM201   0.0000
    32 HB2         20.0611    24.5712     1.0140 H            1 SAM201   0.0000
    33 HG1         19.6379    23.9179     3.2253 H            1 SAM201   0.0000
    34 HG2         20.5348    25.1456     3.8210 H            1 SAM201   0.0000
    35 HE1         21.9379    21.2078     2.3124 H            1 SAM201   0.0000
    36 HE2         20.4261    21.6066     2.7837 H            1 SAM201   0.0000
    37 HE3         21.0371    22.2171     1.3978 H            1 SAM201   0.0000
    38 H5'1        22.2905    21.7134     4.8675 H            1 SAM201   0.0000
    39 H5'2        20.7225    22.1694     4.8735 H            1 SAM201   0.0000
    40 H4'         21.4760    24.2654     5.8765 H            1 SAM201   0.0000
    41 H3'         23.9969    22.9726     5.7085 H            1 SAM201   0.0000
    42 H15         23.1857    25.5372     6.5465 H            1 SAM201   0.0000
    43 H2'         23.8644    22.2733     7.8087 H            1 SAM201   0.0000
    44 H17         24.1801    24.9782     8.4637 H            1 SAM201   0.0000
    45 H1'         21.8431    24.2614     8.3769 H            1 SAM201   0.0000
    46 H19         22.4926    20.5704     9.0059 H            1 SAM201   0.0000
    47 H20         20.5875    21.5155    14.6429 H            1 SAM201   0.0000
    48 H21         21.1504    20.4092    13.4349 H            1 SAM201   0.0000
    49 H22         20.3991    25.5683    12.3769 H            1 SAM201   0.0000
    50 H23         17.4356    26.0989     1.2082 H            1 SAM201   0.0000
@<TRIPOS>BOND
     1    1    2       1
     2    2    3       1
     3    2    6       1
     4    3    4      ar
     5    3    5      ar
     6    6    7       1
     7    7    8       1
     8    8    9       1
     9    8   10       1
    10   10   11       1
    11   11   12       1
    12   11   13       1
    13   12   17       1
    14   13   14       1
    15   13   15       1
    16   15   16       1
    17   15   17       1
    18   17   18       1
    19   18   19       1
    20   18   27       1
    21   19   20       2
    22   20   21       1
    23   21   22      ar
    24   21   27      ar
    25   22   23       1
    26   22   24      ar
    27   24   25      ar
    28   25   26      ar
    29   26   27      ar
    30    1   28       1
    31    1   29       1
    32    2   30       1
    33    1   50       1
    34    6   31       1
    35    6   32       1
    36    7   33       1
    37    7   34       1
    38    9   35       1
    39    9   36       1
    40    9   37       1
    41   10   38       1
    42   10   39       1
    43   11   40       1
    44   13   41       1
    45   14   42       1
    46   15   43       1
    47   16   44       1
    48   17   45       1
    49   19   46       1
    50   23   47       1
    51   23   48       1
    52   25   49       1
@<TRIPOS>SUBSTRUCTURE
     1 SAM201      1 GROUP             4 B     SAM     0 **** SAM B 201
