@<TRIPOS>MOLECULE
3awh_FMN_2_ligand
   50    52     1     0     0
SMALL
NO_CHARGES


@<TRIPOS>ATOM
     1 N1           6.5910     0.5110   -41.9790 N.2          1 FMN123   0.0000
     2 C2           5.8390     0.5090   -43.1440 C.2          1 FMN123   0.0000
     3 O2           6.0330    -0.3820   -43.9680 O.2          1 FMN123   0.0000
     4 N3           4.8880     1.5090   -43.3560 N.pl3        1 FMN123   0.0000
     5 C4           4.6820     2.5180   -42.4210 C.2          1 FMN123   0.0000
     6 O4           3.8380     3.3860   -42.6400 O.2          1 FMN123   0.0000
     7 C4A          5.4470     2.5230   -41.2600 C.2          1 FMN123   0.0000
     8 N5           5.2560     3.5150   -40.3020 N.2          1 FMN123   0.0000
     9 C5A          5.8620     3.3910   -39.0560 C.ar         1 FMN123   0.0000
    10 C6           5.5050     4.2930   -38.0500 C.ar         1 FMN123   0.0000
    11 C7           6.1110     4.1900   -36.8000 C.ar         1 FMN123   0.0000
    12 C7M          5.7090     5.1560   -35.6940 C.3          1 FMN123   0.0000
    13 C8           7.0620     3.1950   -36.5470 C.ar         1 FMN123   0.0000
    14 C8M          7.7440     3.0650   -35.1820 C.3          1 FMN123   0.0000
    15 C9           7.4120     2.3030   -37.5630 C.ar         1 FMN123   0.0000
    16 C9A          6.8180     2.4050   -38.8230 C.ar         1 FMN123   0.0000
    17 N10          7.1420     1.4910   -39.8490 N.pl3        1 FMN123   0.0000
    18 C10          6.3910     1.5190   -41.0350 C.2          1 FMN123   0.0000
    19 C1'          8.0690     0.3660   -39.6160 C.3          1 FMN123   0.0000
    20 C2'          7.2710    -0.9210   -39.3210 C.3          1 FMN123   0.0000
    21 O2'          6.6790    -0.8200   -38.0190 O.3          1 FMN123   0.0000
    22 C3'          8.1340    -2.1840   -39.3690 C.3          1 FMN123   0.0000
    23 O3'          9.1620    -2.1030   -38.3600 O.3          1 FMN123   0.0000
    24 C4'          8.7640    -2.4380   -40.7440 C.3          1 FMN123   0.0000
    25 O4'          7.8040    -2.2230   -41.7880 O.3          1 FMN123   0.0000
    26 C5'          9.2610    -3.8830   -40.8430 C.3          1 FMN123   0.0000
    27 O5'          8.0960    -4.7160   -40.8230 O.3          1 FMN123   0.0000
    28 P            8.2300    -6.3230   -40.6200 P.3          1 FMN123   0.0000
    29 O1P          8.8260    -6.5830   -39.1840 O.co2        1 FMN123   0.0000
    30 O2P          9.3110    -6.8240   -41.7070 O.co2        1 FMN123  -1.0000
    31 O3P          6.8860    -6.9120   -40.7900 O.co2        1 FMN123  -1.0000
    32 H1           4.3449     1.4997   -44.1956 H            1 FMN123   0.0000
    33 H2           4.8232     5.0033   -38.2253 H            1 FMN123   0.0000
    34 H7M1         6.2315     4.9512   -34.8663 H            1 FMN123   0.0000
    35 H7M2         5.8994     6.0936   -35.9849 H            1 FMN123   0.0000
    36 H7M3         4.7321     5.0577   -35.5043 H            1 FMN123   0.0000
    37 H8M1         8.3863     2.2988   -35.2019 H            1 FMN123   0.0000
    38 H8M2         8.2384     3.9092   -34.9746 H            1 FMN123   0.0000
    39 H8M3         7.0526     2.9021   -34.4781 H            1 FMN123   0.0000
    40 H9           8.0900     1.5891   -37.3878 H            1 FMN123   0.0000
    41 H1'1         8.6572     0.5775   -38.8354 H            1 FMN123   0.0000
    42 H1'2         8.6328     0.2271   -40.4302 H            1 FMN123   0.0000
    43 H2'          6.5406    -1.0068   -39.9986 H            1 FMN123   0.0000
    44 H13          6.4865     0.1396   -37.8139 H            1 FMN123   0.0000
    45 H3'          7.5489    -2.9648   -39.1499 H            1 FMN123   0.0000
    46 H15          9.0733    -1.2402   -37.8622 H            1 FMN123   0.0000
    47 H4'          9.5355    -1.8150   -40.8728 H            1 FMN123   0.0000
    48 H17          7.4775    -1.2785   -41.7512 H            1 FMN123   0.0000
    49 H5'1         9.8532    -4.0986   -40.0666 H            1 FMN123   0.0000
    50 H5'2         9.7667    -4.0168   -41.6953 H            1 FMN123   0.0000
@<TRIPOS>BOND
     1    1    2       1
     2    1   18       2
     3    2    3       2
     4    2    4       1
     5    4    5       1
     6    5    6       2
     7    5    7       1
     8    7    8       2
     9    7   18       1
    10    8    9       1
    11    9   10      ar
    12    9   16      ar
    13   10   11      ar
    14   11   12       1
    15   11   13      ar
    16   13   14       1
    17   13   15      ar
    18   15   16      ar
    19   16   17       1
    20   17   18       1
    21   17   19       1
    22   19   20       1
    23   20   21       1
    24   20   22       1
    25   22   23       1
    26   22   24       1
    27   24   25       1
    28   24   26       1
    29   26   27       1
    30   27   28       1
    31   28   29      ar
    32   28   30      ar
    33   28   31      ar
    34    4   32       1
    35   10   33       1
    36   12   34       1
    37   12   35       1
    38   12   36       1
    39   14   37       1
    40   14   38       1
    41   14   39       1
    42   15   40       1
    43   19   41       1
    44   19   42       1
    45   20   43       1
    46   21   44       1
    47   22   45       1
    48   23   46       1
    49   24   47       1
    50   25   48       1
    51   26   49       1
    52   26   50       1
@<TRIPOS>SUBSTRUCTURE
     1 FMN123      1 GROUP             4 B     FMN     0 **** FMN B 123
