@<TRIPOS>MOLECULE
./coach420/1vps/ligand.pdb
 66 69 0 0 0
SMALL
GASTEIGER

@<TRIPOS>ATOM
      1  C1        -8.0280  154.9340   34.7860 C.2     1  SIA1        0.4152
      2  C2        -8.6040  153.5030   34.8410 C.3     1  SIA1        0.2863
      3  C3        -8.5730  152.8690   33.4480 C.3     1  SIA1        0.1028
      4  C4        -7.1380  152.6770   32.9720 C.3     1  SIA1        0.1797
      5  C5        -6.3410  151.8780   34.0050 C.3     1  SIA1        0.1554
      6  C6        -6.4390  152.5940   35.3580 C.3     1  SIA1        0.1733
      7  C7        -5.6620  151.8810   36.4690 C.3     1  SIA1        0.2135
      8  C8        -5.7330  152.7070   37.7800 C.3     1  SIA1        0.2173
      9  C9        -4.6710  152.2760   38.7890 C.3     1  SIA1        0.2175
     10  C10       -4.3350  150.6250   33.4260 C.2     1  SIA1        0.2420
     11  C11       -2.8770  150.6570   32.9830 C.3     1  SIA1        0.0964
     12  N5        -4.9500  151.8010   33.5810 N.am    1  SIA1       -0.2020
     13  O1A       -8.3460  155.6860   33.8430 O.co2   1  SIA1       -0.2402
     14  O1B       -7.2910  155.3260   35.7120 O.co2   1  SIA1       -0.2402
     15  O4        -7.1380  152.0010   31.7240 O.3     1  SIA1       -0.2210
     16  O6        -7.8220  152.7250   35.7580 O.3     1  SIA1       -0.3239
     17  O7        -6.2260  150.5920   36.6740 O.3     1  SIA1       -0.2176
     18  O8        -5.5640  154.0900   37.5130 O.3     1  SIA1       -0.2175
     19  O9        -5.0690  151.0590   39.3880 O.3     1  SIA1       -0.2175
     20  O10       -4.8950  149.5450   33.6250 O.2     1  SIA1       -0.2733
     21  C1       -11.4070  154.7880   38.5330 C.3     2  GAL2        0.2694
     22  C2       -10.7730  153.8040   37.5370 C.3     2  GAL2        0.2374
     23  C3       -10.2840  154.5140   36.2830 C.3     2  GAL2        0.1861
     24  C4       -11.4000  155.3610   35.7070 C.3     2  GAL2        0.2113
     25  C5       -11.9350  156.3160   36.7650 C.3     2  GAL2        0.1834
     26  C6       -13.0900  157.1470   36.2400 C.3     2  GAL2        0.2142
     27  O2        -9.6740  153.1360   38.1380 O.3     2  GAL2       -0.2150
     28  O3        -9.9090  153.5230   35.3020 O.3     2  GAL2       -0.3229
     29  O4       -12.4460  154.5070   35.2690 O.3     2  GAL2       -0.2177
     30  O5       -12.4250  155.5690   37.8940 O.3     2  GAL2       -0.3256
     31  O6       -13.5100  158.1190   37.1870 O.3     2  GAL2       -0.2176
     32  C1       -12.8970  155.1260   43.0570 C.3     3  NAG3        0.2916
     33  C2       -12.0580  154.5490   41.9160 C.3     3  NAG3        0.1839
     34  C3       -12.7210  154.8110   40.5680 C.3     3  NAG3        0.1755
     35  C4       -14.1790  154.3460   40.5940 C.3     3  NAG3        0.2103
     36  C5       -14.9290  154.9030   41.8120 C.3     3  NAG3        0.1801
     37  C6       -16.3280  154.3070   41.9230 C.3     3  NAG3        0.1773
     38  C7        -9.6380  154.3650   41.9080 C.2     3  NAG3        0.2420
     39  C8        -8.2980  155.0950   41.9180 C.3     3  NAG3        0.0964
     40  N2       -10.7270  155.1350   41.9230 N.am    3  NAG3       -0.1993
     41  O1       -12.3210  154.7730   44.2680 O.3     3  NAG3       -0.1879
     42  O3       -12.0090  154.0700   39.5540 O.3     3  NAG3       -0.3264
     43  O4       -14.8350  154.7630   39.4040 O.3     3  NAG3       -0.2178
     44  O5       -14.2200  154.5770   43.0280 O.3     3  NAG3       -0.3243
     45  O6       -16.9720  154.7470   43.1380 O.3     3  NAG3       -0.3233
     46  O7        -9.6850  153.1280   41.8910 O.2     3  NAG3       -0.2733
     47  C1       -18.6090  156.3580   42.4310 C.2     4  SIA4        0.4152
     48  C2       -18.3420  154.9750   43.0670 C.3     4  SIA4        0.2863
     49  C3       -18.9540  154.9010   44.4780 C.3     4  SIA4        0.1028
     50  C4       -20.4860  154.9070   44.4260 C.3     4  SIA4        0.1797
     51  C5       -21.0080  153.8130   43.4890 C.3     4  SIA4        0.1554
     52  C6       -20.3590  154.0270   42.1050 C.3     4  SIA4        0.1733
     53  C7       -20.8080  153.0220   41.0220 C.3     4  SIA4        0.2135
     54  C8       -20.3340  153.5510   39.6570 C.3     4  SIA4        0.2173
     55  C9       -20.4010  152.4960   38.5480 C.3     4  SIA4        0.2175
     56  C10      -23.2500  152.8580   43.4460 C.2     4  SIA4        0.2420
     57  C11      -24.7530  153.1160   43.4020 C.3     4  SIA4        0.0964
     58  N5       -22.4600  153.9310   43.4250 N.am    4  SIA4       -0.2020
     59  O1A      -18.5880  157.3780   43.1620 O.co2   4  SIA4       -0.2402
     60  O1B      -18.8150  156.4320   41.1970 O.co2   4  SIA4       -0.2402
     61  O4       -21.0260  154.7190   45.7300 O.3     4  SIA4       -0.2210
     62  O6       -18.9110  153.9610   42.2180 O.3     4  SIA4       -0.3239
     63  O7       -20.2220  151.7470   41.2730 O.3     4  SIA4       -0.2176
     64  O8       -21.1160  154.6720   39.2800 O.3     4  SIA4       -0.2175
     65  O9       -19.7150  152.9870   37.4040 O.3     4  SIA4       -0.2175
     66  O10      -22.8160  151.7060   43.4330 O.2     4  SIA4       -0.2733
@<TRIPOS>BOND
     1     1    13   ar
     2     1     2    1
     3     1    14   ar
     4     2     3    1
     5     2    28    1
     6     2    16    1
     7     3     4    1
     8     4    15    1
     9     4     5    1
    10     5    12    1
    11     5     6    1
    12     6    16    1
    13     6     7    1
    14     7    17    1
    15     7     8    1
    16     8    18    1
    17     8     9    1
    18     9    19    1
    19    10    11    1
    20    10    12   am
    21    10    20    2
    22    21    22    1
    23    21    30    1
    24    21    42    1
    25    22    23    1
    26    22    27    1
    27    23    28    1
    28    23    24    1
    29    24    29    1
    30    24    25    1
    31    25    26    1
    32    25    30    1
    33    26    31    1
    34    32    33    1
    35    32    44    1
    36    32    41    1
    37    33    34    1
    38    33    40    1
    39    34    42    1
    40    34    35    1
    41    35    43    1
    42    35    36    1
    43    36    37    1
    44    36    44    1
    45    37    45    1
    46    38    46    2
    47    38    39    1
    48    38    40   am
    49    45    48    1
    50    47    60   ar
    51    47    48    1
    52    47    59   ar
    53    48    62    1
    54    48    49    1
    55    49    50    1
    56    50    51    1
    57    50    61    1
    58    51    52    1
    59    51    58    1
    60    52    53    1
    61    52    62    1
    62    53    54    1
    63    53    63    1
    64    54    55    1
    65    54    64    1
    66    55    65    1
    67    56    57    1
    68    56    58   am
    69    56    66    2
