@<TRIPOS>MOLECULE
1mjb_ACO_1_ligand
   85    87     1     0     0
SMALL
NO_CHARGES


@<TRIPOS>ATOM
     1 N1A         19.1870    92.1540    19.9310 N.ar         1 ACO500   0.0000
     2 C2A         18.8940    91.0220    19.1600 C.ar         1 ACO500   0.0000
     3 N3A         17.8020    90.2280    19.2810 N.ar         1 ACO500   0.0000
     4 C4A         16.9670    90.6240    20.2660 C.ar         1 ACO500   0.0000
     5 C5A         17.1060    91.7520    21.1420 C.ar         1 ACO500   0.0000
     6 C6A         18.3390    92.5750    20.9450 C.ar         1 ACO500   0.0000
     7 N6A         18.6020    93.6190    21.6580 N.pl3        1 ACO500   0.0000
     8 N7A         16.0710    91.8500    22.0170 N.2          1 ACO500   0.0000
     9 C8A         15.2640    90.8080    21.7050 C.2          1 ACO500   0.0000
    10 N9A         15.7560    90.0350    20.6520 N.pl3        1 ACO500   0.0000
    11 C1B         15.1180    88.8210    20.0360 C.3          1 ACO500   0.0000
    12 C2B         15.3890    87.5580    20.8320 C.3          1 ACO500   0.0000
    13 O2B         16.6880    87.1030    20.5040 O.3          1 ACO500   0.0000
    14 C3B         14.2600    86.6150    20.3690 C.3          1 ACO500   0.0000
    15 O3B         14.5320    85.9810    19.1720 O.3          1 ACO500   0.0000
    16 P3B         13.9170    84.4210    19.1410 P.3          1 ACO500   0.0000
    17 O7A         14.7330    83.6120    20.2470 O.co2        1 ACO500   0.0000
    18 O8A         14.2430    83.7050    17.7380 O.co2        1 ACO500  -1.0000
    19 O9A         12.3670    84.4870    19.4980 O.co2        1 ACO500  -1.0000
    20 C4B         13.0660    87.5850    20.3550 C.3          1 ACO500   0.0000
    21 O4B         13.6680    88.9420    20.1390 O.3          1 ACO500   0.0000
    22 C5B         12.2720    87.6650    21.6320 C.3          1 ACO500   0.0000
    23 O5B         10.9600    88.1890    21.2430 O.3          1 ACO500   0.0000
    24 P1A         10.5630    89.6920    21.7210 P.3          1 ACO500   0.0000
    25 O1A         11.4650    90.6640    21.0000 O.co2        1 ACO500   0.0000
    26 O2A         10.5080    89.7840    23.2170 O.co2        1 ACO500  -1.0000
    27 O3A          9.1780    89.8820    21.1550 O.3          1 ACO500   0.0000
    28 P2A          8.5430    90.8870    20.0180 P.3          1 ACO500   0.0000
    29 O4A          9.1680    90.6780    18.6490 O.co2        1 ACO500   0.0000
    30 O5A          8.6640    92.3500    20.3830 O.co2        1 ACO500  -1.0000
    31 O6A          6.9830    90.4140    20.1240 O.3          1 ACO500   0.0000
    32 CBP          5.0720    89.2100    19.2040 C.3          1 ACO500   0.0000
    33 CCP          6.4940    89.0860    19.8560 C.3          1 ACO500   0.0000
    34 CDP          4.3430    87.8270    19.0370 C.3          1 ACO500   0.0000
    35 CEP          4.3350    90.1080    20.2330 C.3          1 ACO500   0.0000
    36 CAP          5.3140    89.8640    17.7670 C.3          1 ACO500   0.0000
    37 OAP          5.9670    88.9110    16.8730 O.3          1 ACO500   0.0000
    38 C9P          4.0400    90.3770    17.0850 C.2          1 ACO500   0.0000
    39 O9P          3.4430    91.5300    17.5010 O.2          1 ACO500   0.0000
    40 N8P          3.6030    89.6320    16.1010 N.am         1 ACO500   0.0000
    41 C7P          2.4110    89.9220    15.2760 C.3          1 ACO500   0.0000
    42 C6P          1.1590    89.8890    16.1360 C.3          1 ACO500   0.0000
    43 C5P          0.9350    88.5220    16.7100 C.2          1 ACO500   0.0000
    44 O5P          1.0350    87.4420    16.0140 O.2          1 ACO500   0.0000
    45 N4P          0.6220    88.5460    17.9910 N.am         1 ACO500   0.0000
    46 C3P          0.3300    87.3250    18.8680 C.3          1 ACO500   0.0000
    47 C2P         -1.0970    86.9300    18.5580 C.3          1 ACO500   0.0000
    48 S1P         -1.9120    86.1980    20.0360 S.3          1 ACO500   0.0000
    49 C           -3.1380    86.3360    21.2090 C.2          1 ACO500   0.0000
    50 O           -4.4950    86.7270    20.6110 O.2          1 ACO500   0.0000
    51 CH3         -2.9410    86.2410    22.4210 C.3          1 ACO500   0.0000
    52 H2A         19.5548    90.7755    18.4511 H            1 ACO500   0.0000
    53 H6A1        17.9735    93.9006    22.3830 H            1 ACO500   0.0000
    54 H6A2        19.4342    94.1458    21.4852 H            1 ACO500   0.0000
    55 H8A         14.4056    90.6129    22.1794 H            1 ACO500   0.0000
    56 H1B         15.4016    88.7118    19.0833 H            1 ACO500   0.0000
    57 H2B         15.3167    87.7382    21.8130 H            1 ACO500   0.0000
    58 H7          16.8889    86.2692    21.0182 H            1 ACO500   0.0000
    59 H3B         14.1066    85.9229    21.0743 H            1 ACO500   0.0000
    60 H4B         12.4581    87.3606    19.5934 H            1 ACO500   0.0000
    61 H5B1        12.7162    88.2816    22.2820 H            1 ACO500   0.0000
    62 H5B2        12.1786    86.7582    22.0432 H            1 ACO500   0.0000
    63 HCP1         6.4311    88.5696    20.7100 H            1 ACO500   0.0000
    64 HCP2         7.1148    88.6169    19.2278 H            1 ACO500   0.0000
    65 HDP1         3.4464    87.9712    18.6183 H            1 ACO500   0.0000
    66 HDP2         4.8917    87.2294    18.4523 H            1 ACO500   0.0000
    67 HDP3         4.2272    87.4007    19.9342 H            1 ACO500   0.0000
    68 HEP1         3.3963    90.2652    19.9262 H            1 ACO500   0.0000
    69 HEP2         4.3229    89.6535    21.1237 H            1 ACO500   0.0000
    70 HEP3         4.8109    90.9839    20.3122 H            1 ACO500   0.0000
    71 HAP          5.9306    90.6422    17.8861 H            1 ACO500   0.0000
    72 H21          6.1105    89.3365    15.9795 H            1 ACO500   0.0000
    73 H8P          4.1167    88.8002    15.8906 H            1 ACO500   0.0000
    74 H7P1         2.3339    89.2350    14.5535 H            1 ACO500   0.0000
    75 H7P2         2.5060    90.8287    14.8651 H            1 ACO500   0.0000
    76 H6P1         0.3705    90.1410    15.5749 H            1 ACO500   0.0000
    77 H6P2         1.2591    90.5451    16.8840 H            1 ACO500   0.0000
    78 H4P          0.5707    89.4432    18.4295 H            1 ACO500   0.0000
    79 H3P1         0.4244    87.5600    19.8354 H            1 ACO500   0.0000
    80 H3P2         0.9552    86.5774    18.6441 H            1 ACO500   0.0000
    81 H2P1        -1.0971    86.2578    17.8176 H            1 ACO500   0.0000
    82 H2P2        -1.6064    87.7415    18.2716 H            1 ACO500   0.0000
    83 HH31        -3.8060    86.3560    22.9093 H            1 ACO500   0.0000
    84 HH32        -2.5591    85.3400    22.6270 H            1 ACO500   0.0000
    85 HH33        -2.2979    86.9498    22.7107 H            1 ACO500   0.0000
@<TRIPOS>BOND
     1    1    2      ar
     2    1    6      ar
     3    2    3      ar
     4    3    4      ar
     5    4    5      ar
     6    4   10       1
     7    5    6      ar
     8    5    8       1
     9    6    7       1
    10    8    9       2
    11    9   10       1
    12   10   11       1
    13   11   12       1
    14   11   21       1
    15   12   13       1
    16   12   14       1
    17   14   15       1
    18   14   20       1
    19   15   16       1
    20   16   17      ar
    21   16   18      ar
    22   16   19      ar
    23   20   21       1
    24   20   22       1
    25   22   23       1
    26   23   24       1
    27   24   25      ar
    28   24   26      ar
    29   24   27       1
    30   27   28       1
    31   28   29      ar
    32   28   30      ar
    33   28   31       1
    34   31   33       1
    35   32   33       1
    36   32   34       1
    37   32   35       1
    38   32   36       1
    39   36   37       1
    40   36   38       1
    41   38   39       2
    42   38   40      am
    43   40   41       1
    44   41   42       1
    45   42   43       1
    46   43   44       2
    47   43   45      am
    48   45   46       1
    49   46   47       1
    50   47   48       1
    51   48   49       1
    52   49   50       2
    53   49   51       1
    54    2   52       1
    55    7   53       1
    56    7   54       1
    57    9   55       1
    58   11   56       1
    59   12   57       1
    60   13   58       1
    61   14   59       1
    62   51   85       1
    63   51   84       1
    64   20   60       1
    65   22   61       1
    66   22   62       1
    67   51   83       1
    68   47   82       1
    69   33   63       1
    70   33   64       1
    71   34   65       1
    72   34   66       1
    73   34   67       1
    74   35   68       1
    75   35   69       1
    76   35   70       1
    77   36   71       1
    78   37   72       1
    79   40   73       1
    80   41   74       1
    81   41   75       1
    82   42   76       1
    83   42   77       1
    84   45   78       1
    85   46   79       1
    86   46   80       1
    87   47   81       1
@<TRIPOS>SUBSTRUCTURE
     1 ACO500      1 GROUP             4 A     ACO     0 **** ACO A 500
