@<TRIPOS>MOLECULE
1uad_GNP_1_ligand
   45    47     1     0     0
SMALL
NO_CHARGES


@<TRIPOS>ATOM
     1 PG         105.4930    58.1120    41.1890 P.3          1 GNP200   0.0000
     2 O1G        106.3970    57.0020    40.7190 O.co2        1 GNP200   0.0000
     3 O2G        104.8380    57.6730    42.4650 O.co2        1 GNP200  -1.0000
     4 O3G        104.4540    58.5120    40.2030 O.co2        1 GNP200  -1.0000
     5 N3B        106.6430    59.3960    41.4800 N.3          1 GNP200   0.0000
     6 PB         106.2290    60.9340    42.0270 P.3          1 GNP200   0.0000
     7 O1B        105.4020    61.6330    41.0460 O.co2        1 GNP200   0.0000
     8 O2B        105.6880    60.8110    43.4040 O.co2        1 GNP200  -1.0000
     9 O3A        107.6500    61.6760    42.1480 O.3          1 GNP200   0.0000
    10 PA         108.5530    61.8650    43.4140 P.3          1 GNP200   0.0000
    11 O1A        107.8780    62.7150    44.4050 O.co2        1 GNP200   0.0000
    12 O2A        109.0070    60.4780    43.8160 O.co2        1 GNP200  -1.0000
    13 O5'        109.7420    62.6360    42.8550 O.3          1 GNP200   0.0000
    14 C5'        110.6360    62.0820    41.8610 C.3          1 GNP200   0.0000
    15 C4'        111.9840    62.7440    41.9810 C.3          1 GNP200   0.0000
    16 O4'        112.0020    64.0910    41.6720 O.3          1 GNP200   0.0000
    17 C3'        112.5870    62.6470    43.4200 C.3          1 GNP200   0.0000
    18 O3'        113.9930    62.3050    43.3590 O.3          1 GNP200   0.0000
    19 C2'        112.3740    64.0560    43.9890 C.3          1 GNP200   0.0000
    20 O2'        113.2770    64.4240    44.9910 O.3          1 GNP200   0.0000
    21 C1'        112.5030    64.8850    42.7340 C.3          1 GNP200   0.0000
    22 N9         111.6730    66.1050    42.8150 N.pl3        1 GNP200   0.0000
    23 C8         110.2190    66.0850    43.0420 C.2          1 GNP200   0.0000
    24 N7         109.7490    67.3030    43.0670 N.2          1 GNP200   0.0000
    25 C5         110.9370    68.1620    42.8470 C.2          1 GNP200   0.0000
    26 C6         111.0230    69.6150    42.7760 C.2          1 GNP200   0.0000
    27 O6         110.1640    70.4190    42.8780 O.2          1 GNP200   0.0000
    28 N1         112.3370    70.0280    42.5540 N.pl3        1 GNP200   0.0000
    29 C2         113.3310    69.0750    42.4350 C.2          1 GNP200   0.0000
    30 N2         114.5880    69.7200    42.2110 N.pl3        1 GNP200   0.0000
    31 N3         113.3380    67.7920    42.4830 N.2          1 GNP200   0.0000
    32 C4         112.0510    67.3890    42.7030 C.2          1 GNP200   0.0000
    33 H3B        107.2867    59.0340    42.1542 H            1 GNP200   0.0000
    34 H5'1       110.2632    62.2461    40.9477 H            1 GNP200   0.0000
    35 H5'2       110.7325    61.0979    42.0098 H            1 GNP200   0.0000
    36 H4'        112.6099    62.2785    41.3553 H            1 GNP200   0.0000
    37 H3'        112.0871    61.9723    43.9630 H            1 GNP200   0.0000
    38 H6         114.5380    63.1422    43.3139 H            1 GNP200   0.0000
    39 H2'        111.4411    64.1325    44.3409 H            1 GNP200   0.0000
    40 H8         112.9107    64.1600    45.8832 H            1 GNP200   0.0000
    41 H1'        113.4601    65.1239    42.5701 H            1 GNP200   0.0000
    42 H10        109.6699    65.2576    43.1601 H            1 GNP200   0.0000
    43 H11        112.5568    71.0009    42.4819 H            1 GNP200   0.0000
    44 H12        115.4181    69.1732    42.1017 H            1 GNP200   0.0000
    45 H13        114.6366    70.7177    42.1637 H            1 GNP200   0.0000
@<TRIPOS>BOND
     1    1    2      ar
     2    1    3      ar
     3    1    4      ar
     4    1    5       1
     5    5    6       1
     6    6    7      ar
     7    6    8      ar
     8    6    9       1
     9    9   10       1
    10   10   11      ar
    11   10   12      ar
    12   10   13       1
    13   13   14       1
    14   14   15       1
    15   15   16       1
    16   15   17       1
    17   16   21       1
    18   17   18       1
    19   17   19       1
    20   19   20       1
    21   19   21       1
    22   21   22       1
    23   22   23       1
    24   22   32       1
    25   23   24       2
    26   24   25       1
    27   25   26       1
    28   25   32       2
    29   26   27       2
    30   26   28       1
    31   28   29       1
    32   29   30       1
    33   29   31       2
    34   31   32       1
    35   30   45       1
    36   30   44       1
    37    5   33       1
    38   28   43       1
    39   23   42       1
    40   14   34       1
    41   14   35       1
    42   15   36       1
    43   17   37       1
    44   18   38       1
    45   19   39       1
    46   20   40       1
    47   21   41       1
@<TRIPOS>SUBSTRUCTURE
     1 GNP200      1 GROUP             4 A     GNP     0 **** GNP A 200
