@<TRIPOS>MOLECULE
1dmy_AZM_2_ligand
   18    18     1     0     0
SMALL
NO_CHARGES


@<TRIPOS>ATOM
     1 C1          69.6820    56.4550     4.4780 C.2          1 AZM900   0.0000
     2 C2          71.8680    55.3990     4.2380 C.2          1 AZM900   0.0000
     3 C3          73.8730    55.5080     3.0250 C.2          1 AZM900   0.0000
     4 C4          75.3400    55.0550     2.9280 C.3          1 AZM900   0.0000
     5 N1          67.1830    56.2420     4.4270 N.3          1 AZM900  -1.0000
     6 N2          71.1930    55.0820     5.3910 N.2          1 AZM900   0.0000
     7 N3          69.9500    55.6550     5.5380 N.2          1 AZM900   0.0000
     8 N4          73.1100    54.9160     3.9360 N.am         1 AZM900   0.0000
     9 O1          68.5860    58.0620     3.1410 O.2          1 AZM900   0.0000
    10 O2          68.3530    58.2590     5.4940 O.2          1 AZM900   0.0000
    11 O3          73.4620    56.4010     2.2820 O.2          1 AZM900   0.0000
    12 S1          68.2410    57.3290     4.3820 S.o2         1 AZM900   0.0000
    13 S2          70.8880    56.3890     3.3220 S.3          1 AZM900   0.0000
    14 H1          75.8023    55.5742     2.2092 H            1 AZM900   0.0000
    15 H2          75.7973    55.2166     3.8025 H            1 AZM900   0.0000
    16 H3          75.3740    54.0798     2.7093 H            1 AZM900   0.0000
    17 H4          66.9261    56.0661     5.3773 H            1 AZM900   0.0000
    18 H5          73.4499    54.1031     4.4090 H            1 AZM900   0.0000
@<TRIPOS>BOND
     1    1    7       2
     2    1   12       1
     3    1   13       1
     4    2    6       2
     5    2    8       1
     6    2   13       1
     7    3    4       1
     8    3    8      am
     9    3   11       2
    10    5   12       1
    11    6    7       1
    12    9   12       2
    13   10   12       2
    14    4   14       1
    15    4   15       1
    16    4   16       1
    17    8   18       1
    18    5   17       1
@<TRIPOS>SUBSTRUCTURE
     1 AZM900      1 GROUP             4 B     AZM     0 **** AZM B 900
