@<TRIPOS>MOLECULE
3ipk_PMS_1_ligand
   18    18     1     0     0
SMALL
NO_CHARGES


@<TRIPOS>ATOM
     1 C            6.2450    41.2690    22.5410 C.3          1 PMS900   0.0000
     2 S            6.9070    42.8080    21.8670 S.o2         1 PMS900   0.0000
     3 C1           6.3150    39.8420    23.0870 C.ar         1 PMS900   0.0000
     4 C2           6.8770    39.5960    24.4110 C.ar         1 PMS900   0.0000
     5 C3           6.9470    38.2320    24.9430 C.ar         1 PMS900   0.0000
     6 C4           6.4510    37.1020    24.1510 C.ar         1 PMS900   0.0000
     7 C5           5.8870    37.3510    22.8240 C.ar         1 PMS900   0.0000
     8 C6           5.8190    38.7120    22.2950 C.ar         1 PMS900   0.0000
     9 O3S          7.3840    42.6030    20.4790 O.co2        1 PMS900   0.0000
    10 O2S          5.7010    43.6420    21.6820 O.co2        1 PMS900   0.0000
    11 O1S          7.8730    43.5490    22.6340 O.co2        1 PMS900  -1.0000
    12 H1           5.5915    41.0860    21.8066 H            1 PMS900   0.0000
    13 H2           5.7662    41.6737    23.3201 H            1 PMS900   0.0000
    14 H3           7.2159    40.3615    24.9579 H            1 PMS900   0.0000
    15 H4           7.3349    38.0712    25.8506 H            1 PMS900   0.0000
    16 H5           6.4977    36.1713    24.5138 H            1 PMS900   0.0000
    17 H6           5.5465    36.5866    22.2765 H            1 PMS900   0.0000
    18 H7           5.4318    38.8735    21.3873 H            1 PMS900   0.0000
@<TRIPOS>BOND
     1    1    2       1
     2    1    3       1
     3    2    9      ar
     4    2   10      ar
     5    2   11      ar
     6    3    4      ar
     7    3    8      ar
     8    4    5      ar
     9    5    6      ar
    10    6    7      ar
    11    7    8      ar
    12    1   12       1
    13    1   13       1
    14    4   14       1
    15    5   15       1
    16    6   16       1
    17    7   17       1
    18    8   18       1
@<TRIPOS>SUBSTRUCTURE
     1 PMS900      1 GROUP             4 A     PMS     0 **** PMS A 900
