@<TRIPOS>MOLECULE
2bto_GTP_2_ligand
   44    46     1     0     0
SMALL
NO_CHARGES


@<TRIPOS>ATOM
     1 PG         115.1060   -10.2960    31.7890 P.3          1 GTP1433   0.0000
     2 O1G        114.7580   -10.6890    33.2030 O.co2        1 GTP1433   0.0000
     3 O2G        114.9190    -8.7990    31.6670 O.co2        1 GTP1433  -1.0000
     4 O3G        116.5130   -10.7080    31.3960 O.co2        1 GTP1433  -1.0000
     5 O3B        114.0460   -10.9940    30.7690 O.3          1 GTP1433   0.0000
     6 PB         113.4900   -12.5140    30.7530 P.3          1 GTP1433   0.0000
     7 O1B        112.4000   -12.5210    29.7350 O.co2        1 GTP1433   0.0000
     8 O2B        112.9100   -12.9540    32.0640 O.co2        1 GTP1433  -1.0000
     9 O3A        114.7180   -13.3780    30.1900 O.3          1 GTP1433   0.0000
    10 PA         114.5120   -14.4730    29.0240 P.3          1 GTP1433   0.0000
    11 O1A        115.1150   -14.0110    27.7190 O.co2        1 GTP1433   0.0000
    12 O2A        113.0350   -14.7770    28.8830 O.co2        1 GTP1433  -1.0000
    13 O5'        115.3370   -15.7840    29.5260 O.3          1 GTP1433   0.0000
    14 C5'        116.6020   -16.1320    28.9940 C.3          1 GTP1433   0.0000
    15 C4'        116.6220   -17.5940    28.5480 C.3          1 GTP1433   0.0000
    16 O4'        115.6000   -17.8400    27.6080 O.3          1 GTP1433   0.0000
    17 C3'        117.9100   -17.9810    27.8430 C.3          1 GTP1433   0.0000
    18 O3'        118.1760   -19.3320    28.1640 O.3          1 GTP1433   0.0000
    19 C2'        117.5890   -17.8600    26.3690 C.3          1 GTP1433   0.0000
    20 O2'        118.3810   -18.7260    25.5900 O.3          1 GTP1433   0.0000
    21 C1'        116.1300   -18.2620    26.3610 C.3          1 GTP1433   0.0000
    22 N9         115.2750   -17.6430    25.3350 N.pl3        1 GTP1433   0.0000
    23 C8         115.0560   -16.3060    25.1110 C.2          1 GTP1433   0.0000
    24 N7         114.1600   -16.1730    24.1100 N.2          1 GTP1433   0.0000
    25 C5         113.7840   -17.4010    23.6940 C.2          1 GTP1433   0.0000
    26 C6         112.8960   -17.8410    22.7130 C.2          1 GTP1433   0.0000
    27 O6         112.2750   -17.0370    22.0160 O.2          1 GTP1433   0.0000
    28 N1         112.7240   -19.2030    22.5240 N.pl3        1 GTP1433   0.0000
    29 C2         113.4140   -20.1180    23.3020 C.2          1 GTP1433   0.0000
    30 N2         113.2450   -21.4200    23.1170 N.pl3        1 GTP1433   0.0000
    31 N3         114.2880   -19.6770    24.2760 N.2          1 GTP1433   0.0000
    32 C4         114.4720   -18.3400    24.4670 C.2          1 GTP1433   0.0000
    33 H5'1       117.3014   -15.9939    29.6952 H            1 GTP1433   0.0000
    34 H5'2       116.7986   -15.5469    28.2073 H            1 GTP1433   0.0000
    35 H4'        116.4894   -18.1849    29.3437 H            1 GTP1433   0.0000
    36 H3'        118.6678   -17.3836    28.1055 H            1 GTP1433   0.0000
    37 H5         119.0588   -19.3965    28.6292 H            1 GTP1433   0.0000
    38 H2'        117.6952   -16.9142    26.0621 H            1 GTP1433   0.0000
    39 H7         118.6115   -19.5387    26.1251 H            1 GTP1433   0.0000
    40 H1'        116.0615   -19.2573    26.2922 H            1 GTP1433   0.0000
    41 H9         115.4892   -15.5541    25.6079 H            1 GTP1433   0.0000
    42 H10        112.0949   -19.5288    21.8183 H            1 GTP1433   0.0000
    43 H11        113.7466   -22.0746    23.6825 H            1 GTP1433   0.0000
    44 H12        112.6159   -21.7473    22.4119 H            1 GTP1433   0.0000
@<TRIPOS>BOND
     1    1    2      ar
     2    1    3      ar
     3    1    4      ar
     4    1    5       1
     5    5    6       1
     6    6    7      ar
     7    6    8      ar
     8    6    9       1
     9    9   10       1
    10   10   11      ar
    11   10   12      ar
    12   10   13       1
    13   13   14       1
    14   14   15       1
    15   15   16       1
    16   15   17       1
    17   16   21       1
    18   17   18       1
    19   17   19       1
    20   19   20       1
    21   19   21       1
    22   21   22       1
    23   22   23       1
    24   22   32       1
    25   23   24       2
    26   24   25       1
    27   25   26       1
    28   25   32       2
    29   26   27       2
    30   26   28       1
    31   28   29       1
    32   29   30       1
    33   29   31       2
    34   31   32       1
    35   30   44       1
    36   30   43       1
    37   28   42       1
    38   23   41       1
    39   14   33       1
    40   14   34       1
    41   15   35       1
    42   17   36       1
    43   18   37       1
    44   19   38       1
    45   20   39       1
    46   21   40       1
@<TRIPOS>SUBSTRUCTURE
     1 GTP1433     1 GROUP             4 B     GTP     0 **** GTP B1433
