@<TRIPOS>MOLECULE
4inb_1F6_1_ligand
   50    52     1     0     0
SMALL
NO_CHARGES


@<TRIPOS>ATOM
     1 C1          26.8060    14.0140    38.1320 C.ar         1 1F6201   0.0000
     2 C2          27.3780    12.7460    38.3380 C.ar         1 1F6201   0.0000
     3 C3          26.7010    11.6610    39.0060 C.ar         1 1F6201   0.0000
     4 C4          25.3740    11.8860    39.4860 C.ar         1 1F6201   0.0000
     5 C5          24.7830    13.1970    39.2660 C.ar         1 1F6201   0.0000
     6 C6          25.4850    14.2360    38.6050 C.ar         1 1F6201   0.0000
     7 N7          27.4290    10.4100    39.1510 N.am         1 1F6201   0.0000
     8 C8          26.9080     9.1150    38.8630 C.2          1 1F6201   0.0000
     9 C9          25.4210     8.8820    38.8640 C.2          1 1F6201   0.0000
    10 C10         24.5240     9.5030    39.8900 C.2          1 1F6201   0.0000
    11 N11         24.5920    10.8900    40.1780 N.am         1 1F6201   0.0000
    12 C12         24.8240     8.0770    37.9780 C.2          1 1F6201   0.0000
    13 N13         25.3450     7.3410    36.9420 N.pl3        1 1F6201   0.0000
    14 C14         24.5920     6.3920    36.1270 C.3          1 1F6201   0.0000
    15 C15         24.0210     7.0630    34.8710 C.3          1 1F6201   0.0000
    16 O16         23.4390     8.3510    35.1900 O.3          1 1F6201   0.0000
    17 C17         23.4790     9.2280    34.0630 C.3          1 1F6201   0.0000
    18 C18         28.8340    10.5270    39.5880 C.ar         1 1F6201   0.0000
    19 C19         29.1630    10.9160    40.9340 C.ar         1 1F6201   0.0000
    20 C20         30.5150    11.0390    41.3430 C.ar         1 1F6201   0.0000
    21 C21         31.5640    10.7780    40.4200 C.ar         1 1F6201   0.0000
    22 C22         31.2690    10.3910    39.0900 C.ar         1 1F6201   0.0000
    23 C23         29.9220    10.2670    38.6750 C.ar         1 1F6201   0.0000
    24 C24         23.7680    11.3480    41.3250 C.3          1 1F6201   0.0000
    25 C25         27.6120    15.0870    37.4330 C.3          1 1F6201   0.0000
    26 F26         28.9620    14.8520    37.4540 F            1 1F6201   0.0000
    27 F27         27.4590    16.3160    38.0070 F            1 1F6201   0.0000
    28 F28         27.2920    15.2330    36.1240 F            1 1F6201   0.0000
    29 O29         27.6210     8.1460    38.5710 O.2          1 1F6201   0.0000
    30 O30         23.6990     8.7590    40.4460 O.2          1 1F6201   0.0000
    31 H1          28.3066    12.5873    38.0025 H            1 1F6201   0.0000
    32 H2          23.8533    13.3704    39.5910 H            1 1F6201   0.0000
    33 H3          25.0498    15.1264    38.4715 H            1 1F6201   0.0000
    34 H4          23.8333     7.9979    38.0883 H            1 1F6201   0.0000
    35 H5          26.3143     7.4646    36.7296 H            1 1F6201   0.0000
    36 H6          23.8378     6.0232    36.6703 H            1 1F6201   0.0000
    37 H7          25.1991     5.6471    35.8505 H            1 1F6201   0.0000
    38 H8          23.3155     6.4737    34.4774 H            1 1F6201   0.0000
    39 H9          24.7566     7.1921    34.2060 H            1 1F6201   0.0000
    40 H10         23.0721    10.1073    34.3103 H            1 1F6201   0.0000
    41 H11         24.4287     9.3673    33.7826 H            1 1F6201   0.0000
    42 H12         22.9642     8.8233    33.3072 H            1 1F6201   0.0000
    43 H13         28.4298    11.1016    41.5882 H            1 1F6201   0.0000
    44 H14         30.7307    11.3095    42.2813 H            1 1F6201   0.0000
    45 H15         32.5163    10.8682    40.7116 H            1 1F6201   0.0000
    46 H16         32.0110    10.2058    38.4457 H            1 1F6201   0.0000
    47 H17         29.7202     9.9949    37.7341 H            1 1F6201   0.0000
    48 H18         23.2780    10.5687    41.7156 H            1 1F6201   0.0000
    49 H19         24.3612    11.7518    42.0214 H            1 1F6201   0.0000
    50 H20         23.1098    12.0320    41.0105 H            1 1F6201   0.0000
@<TRIPOS>BOND
     1    1    2      ar
     2    1    6      ar
     3    1   25       1
     4    2    3      ar
     5    3    4      ar
     6    3    7       1
     7    4    5      ar
     8    4   11       1
     9    5    6      ar
    10    7    8      am
    11    7   18       1
    12    8    9       1
    13    8   29       2
    14    9   10       1
    15    9   12       2
    16   10   11      am
    17   10   30       2
    18   11   24       1
    19   12   13       1
    20   13   14       1
    21   14   15       1
    22   15   16       1
    23   16   17       1
    24   18   19      ar
    25   18   23      ar
    26   19   20      ar
    27   20   21      ar
    28   21   22      ar
    29   22   23      ar
    30   25   26       1
    31   25   27       1
    32   25   28       1
    33    2   31       1
    34    5   32       1
    35    6   33       1
    36   12   34       1
    37   13   35       1
    38   14   36       1
    39   14   37       1
    40   15   38       1
    41   15   39       1
    42   17   40       1
    43   17   41       1
    44   17   42       1
    45   19   43       1
    46   20   44       1
    47   21   45       1
    48   22   46       1
    49   23   47       1
    50   24   48       1
    51   24   49       1
    52   24   50       1
@<TRIPOS>SUBSTRUCTURE
     1 1F6201      1 GROUP             4 A     1F6     0 **** 1F6 A 201
