@<TRIPOS>MOLECULE
4nl4_ADP_1_ligand
   39    41     1     0     0
SMALL
NO_CHARGES


@<TRIPOS>ATOM
     1 PB          15.8880    -3.1420    -7.7610 P.3          1 ADP801   0.0000
     2 O1B         16.8360    -4.2250    -8.2180 O.co2        1 ADP801   0.0000
     3 O2B         15.7910    -2.9740    -6.2650 O.co2        1 ADP801  -1.0000
     4 O3B         14.5560    -3.1450    -8.4720 O.co2        1 ADP801  -1.0000
     5 PA          16.7840    -1.3660    -9.7540 P.3          1 ADP801   0.0000
     6 O1A         17.9380    -0.4010    -9.8450 O.co2        1 ADP801   0.0000
     7 O2A         16.7940    -2.6110   -10.6050 O.co2        1 ADP801  -1.0000
     8 O3A         16.6200    -1.7860    -8.2130 O.3          1 ADP801   0.0000
     9 O5'         15.4130    -0.5480    -9.9850 O.3          1 ADP801   0.0000
    10 C5'         14.3110    -1.0720   -10.7350 C.3          1 ADP801   0.0000
    11 C4'         14.2030    -0.3520   -12.0750 C.3          1 ADP801   0.0000
    12 O4'         14.3840     1.0570   -11.8930 O.3          1 ADP801   0.0000
    13 C3'         15.2730    -0.8310   -13.0430 C.3          1 ADP801   0.0000
    14 O3'         14.6710    -1.2030   -14.2880 O.3          1 ADP801   0.0000
    15 C2'         16.2390     0.3330   -13.2010 C.3          1 ADP801   0.0000
    16 O2'         16.5040     0.6090   -14.5820 O.3          1 ADP801   0.0000
    17 C1'         15.5740     1.5350   -12.5340 C.3          1 ADP801   0.0000
    18 N9          16.4620     2.1930   -11.5290 N.pl3        1 ADP801   0.0000
    19 C8          16.1430     2.4130   -10.2380 C.2          1 ADP801   0.0000
    20 N7          17.1470     3.0360    -9.5710 N.2          1 ADP801   0.0000
    21 C5          18.1460     3.2370   -10.4490 C.ar         1 ADP801   0.0000
    22 C6          19.5010     3.8470   -10.4060 C.ar         1 ADP801   0.0000
    23 N6          19.9940     4.3790    -9.2590 N.pl3        1 ADP801   0.0000
    24 N1          20.2280     3.8550   -11.5510 N.ar         1 ADP801   0.0000
    25 C2          19.7530     3.3310   -12.7010 C.ar         1 ADP801   0.0000
    26 N3          18.5340     2.7640   -12.8080 N.ar         1 ADP801   0.0000
    27 C4          17.6930     2.6850   -11.7400 C.ar         1 ADP801   0.0000
    28 H5'1        13.4654    -0.9385   -10.2182 H            1 ADP801   0.0000
    29 H5'2        14.4536    -2.0489   -10.8944 H            1 ADP801   0.0000
    30 H4'         13.3000    -0.5213   -12.4698 H            1 ADP801   0.0000
    31 H3'         15.7531    -1.6167   -12.6528 H            1 ADP801   0.0000
    32 H5          14.8609    -2.1668   -14.4753 H            1 ADP801   0.0000
    33 H2'         17.0964     0.1221   -12.7316 H            1 ADP801   0.0000
    34 H7          15.9908    -0.0307   -15.1542 H            1 ADP801   0.0000
    35 H1'         15.3229     2.2017   -13.2357 H            1 ADP801   0.0000
    36 H9          15.2725     2.1492    -9.8225 H            1 ADP801   0.0000
    37 H10         20.9077     4.7852    -9.2486 H            1 ADP801   0.0000
    38 H11         19.4436     4.3648    -8.4242 H            1 ADP801   0.0000
    39 H12         20.3341     3.3650   -13.5141 H            1 ADP801   0.0000
@<TRIPOS>BOND
     1    1    2      ar
     2    1    3      ar
     3    1    4      ar
     4    1    8       1
     5    5    6      ar
     6    5    7      ar
     7    5    8       1
     8    5    9       1
     9    9   10       1
    10   10   11       1
    11   11   12       1
    12   11   13       1
    13   12   17       1
    14   13   14       1
    15   13   15       1
    16   15   16       1
    17   15   17       1
    18   17   18       1
    19   18   19       1
    20   18   27       1
    21   19   20       2
    22   20   21       1
    23   21   22      ar
    24   21   27      ar
    25   22   23       1
    26   22   24      ar
    27   24   25      ar
    28   25   26      ar
    29   26   27      ar
    30   25   39       1
    31   23   38       1
    32   23   37       1
    33   10   28       1
    34   10   29       1
    35   11   30       1
    36   13   31       1
    37   14   32       1
    38   15   33       1
    39   16   34       1
    40   17   35       1
    41   19   36       1
@<TRIPOS>SUBSTRUCTURE
     1 ADP801      1 GROUP             4 H     ADP     0 **** ADP H 801
