@<TRIPOS>MOLECULE
2okl_BB2_1_ligand
   59    59     1     0     0
SMALL
NO_CHARGES


@<TRIPOS>ATOM
     1 C5          18.8780     3.5160  -219.0360 C.3          1 BB2401   0.0000
     2 C3          19.5610     3.4700  -217.6580 C.2          1 BB2401   0.0000
     3 O4          20.8090     3.4480  -217.6470 O.2          1 BB2401   0.0000
     4 N1          18.8340     3.4330  -216.5610 N.am         1 BB2401   0.0000
     5 O2          19.2960     3.3940  -215.4270 O.3          1 BB2401  -1.0000
     6 C6          18.8930     2.0570  -219.6340 C.3          1 BB2401   0.0000
     7 C12         18.6720     1.9380  -221.1570 C.2          1 BB2401   0.0000
     8 O13         17.7700     2.5100  -221.7480 O.2          1 BB2401   0.0000
     9 C7          17.7520     1.2680  -218.8830 C.3          1 BB2401   0.0000
    10 C8          17.7210    -0.1870  -219.3880 C.3          1 BB2401   0.0000
    11 C9          16.6740    -1.0330  -218.7110 C.3          1 BB2401   0.0000
    12 C10         17.0050    -2.5200  -218.8290 C.3          1 BB2401   0.0000
    13 C11         16.6950    -3.0950  -220.1710 C.3          1 BB2401   0.0000
    14 N14         19.5530     1.1620  -221.7750 N.am         1 BB2401   0.0000
    15 C15         19.5200     0.7650  -223.1850 C.3          1 BB2401   0.0000
    16 C16         20.7560     1.2740  -223.9860 C.3          1 BB2401   0.0000
    17 C18         21.1110     2.7060  -223.6390 C.3          1 BB2401   0.0000
    18 C17         20.4510     1.1710  -225.4840 C.3          1 BB2401   0.0000
    19 C19         19.4190    -0.7810  -223.1840 C.2          1 BB2401   0.0000
    20 O20         20.2230    -1.4320  -222.5230 O.2          1 BB2401   0.0000
    21 N21         18.4500    -1.3710  -223.9040 N.am         1 BB2401   0.0000
    22 C22         18.2830    -2.8300  -223.9510 C.3          1 BB2401   0.0000
    23 C23         17.4250    -0.6580  -224.7310 C.3          1 BB2401   0.0000
    24 C24         16.6010    -1.7740  -225.3130 C.3          1 BB2401   0.0000
    25 C25         16.8420    -2.9760  -224.4460 C.3          1 BB2401   0.0000
    26 C26         19.2560    -3.5580  -224.8920 C.2          1 BB2401   0.0000
    27 O27         19.2830    -4.8310  -224.8310 O.2          1 BB2401   0.0000
    28 H1          19.3763     4.1364  -219.6416 H            1 BB2401   0.0000
    29 H2          17.9347     3.8329  -218.9372 H            1 BB2401   0.0000
    30 H3          17.8389     3.4370  -216.6599 H            1 BB2401   0.0000
    31 H4          19.7702     1.6330  -219.4087 H            1 BB2401   0.0000
    32 H5          16.8701     1.7032  -219.0642 H            1 BB2401   0.0000
    33 H6          17.9320     1.2763  -217.8994 H            1 BB2401   0.0000
    34 H7          18.6170    -0.5991  -219.2227 H            1 BB2401   0.0000
    35 H8          17.5345    -0.1777  -220.3704 H            1 BB2401   0.0000
    36 H9          15.7876    -0.8609  -219.1407 H            1 BB2401   0.0000
    37 H10         16.6293    -0.7845  -217.7434 H            1 BB2401   0.0000
    38 H11         16.4757    -3.0175  -218.1417 H            1 BB2401   0.0000
    39 H12         17.9813    -2.6420  -218.6504 H            1 BB2401   0.0000
    40 H13         16.9338    -4.0660  -220.1809 H            1 BB2401   0.0000
    41 H14         15.7189    -2.9899  -220.3613 H            1 BB2401   0.0000
    42 H15         17.2245    -2.6144  -220.8700 H            1 BB2401   0.0000
    43 H16         20.3128     0.8146  -221.2255 H            1 BB2401   0.0000
    44 H17         18.6922     1.1391  -223.6030 H            1 BB2401   0.0000
    45 H18         21.5390     0.6884  -223.7760 H            1 BB2401   0.0000
    46 H19         21.9065     2.9911  -224.1736 H            1 BB2401   0.0000
    47 H20         20.3364     3.3020  -223.8503 H            1 BB2401   0.0000
    48 H21         21.3243     2.7697  -222.6641 H            1 BB2401   0.0000
    49 H22         21.2387     1.4956  -226.0076 H            1 BB2401   0.0000
    50 H23         20.2629     0.2179  -225.7211 H            1 BB2401   0.0000
    51 H24         19.6523     1.7323  -225.7009 H            1 BB2401   0.0000
    52 H25         18.3616    -3.2075  -223.0283 H            1 BB2401   0.0000
    53 H26         17.8601    -0.1211  -225.4538 H            1 BB2401   0.0000
    54 H27         16.8623    -0.0577  -224.1626 H            1 BB2401   0.0000
    55 H28         16.8879    -1.9621  -226.2523 H            1 BB2401   0.0000
    56 H29         15.6314    -1.5294  -225.3032 H            1 BB2401   0.0000
    57 H30         16.2054    -2.9857  -223.6748 H            1 BB2401   0.0000
    58 H31         16.7366    -3.8175  -224.9758 H            1 BB2401   0.0000
    59 H32         19.8432    -3.0542  -225.5255 H            1 BB2401   0.0000
@<TRIPOS>BOND
     1    1    2       1
     2    1    6       1
     3    2    3       2
     4    2    4      am
     5    4    5       1
     6    6    7       1
     7    6    9       1
     8    7    8       2
     9    7   14      am
    10    9   10       1
    11   10   11       1
    12   11   12       1
    13   12   13       1
    14   14   15       1
    15   15   16       1
    16   15   19       1
    17   16   17       1
    18   16   18       1
    19   19   20       2
    20   19   21      am
    21   21   22       1
    22   21   23       1
    23   22   25       1
    24   22   26       1
    25   23   24       1
    26   24   25       1
    27   26   27       2
    28    1   28       1
    29    1   29       1
    30    4   30       1
    31   26   59       1
    32    6   31       1
    33    9   32       1
    34    9   33       1
    35   10   34       1
    36   10   35       1
    37   11   36       1
    38   11   37       1
    39   12   38       1
    40   12   39       1
    41   13   40       1
    42   13   41       1
    43   13   42       1
    44   14   43       1
    45   15   44       1
    46   16   45       1
    47   17   46       1
    48   17   47       1
    49   17   48       1
    50   18   49       1
    51   18   50       1
    52   18   51       1
    53   22   52       1
    54   23   53       1
    55   23   54       1
    56   24   55       1
    57   24   56       1
    58   25   57       1
    59   25   58       1
@<TRIPOS>SUBSTRUCTURE
     1 BB2401      1 GROUP             4 A     BB2     0 **** BB2 A 401
