@<TRIPOS>MOLECULE
3u9f_CLM_13_ligand
   32    32     1     0     0
SMALL
NO_CHARGES


@<TRIPOS>ATOM
     1 C1           5.5910   103.4530    84.5360 C.3          1 CLM221   0.0000
     2 CL1          6.9820   104.2850    83.7620 Cl           1 CLM221   0.0000
     3 CL2          4.3610   102.9230    83.3420 Cl           1 CLM221   0.0000
     4 C2           6.0420   102.2710    85.3500 C.2          1 CLM221   0.0000
     5 O2           5.2760   101.7840    86.1690 O.2          1 CLM221   0.0000
     6 N2           7.2750   101.8130    85.1400 N.am         1 CLM221   0.0000
     7 C3           7.7300   100.5530    85.7030 C.3          1 CLM221   0.0000
     8 C4           8.7760   100.8080    86.7880 C.3          1 CLM221   0.0000
     9 O4           8.5570    99.9250    87.8970 O.3          1 CLM221   0.0000
    10 C5           8.2210    99.6030    84.6010 C.3          1 CLM221   0.0000
    11 O5           9.4330   100.0800    84.0000 O.3          1 CLM221   0.0000
    12 C6           7.1630    99.4300    83.5720 C.ar         1 CLM221   0.0000
    13 C7           6.1820    98.4510    83.7570 C.ar         1 CLM221   0.0000
    14 C8           5.1770    98.2730    82.8060 C.ar         1 CLM221   0.0000
    15 C9           5.1540    99.0780    81.6660 C.ar         1 CLM221   0.0000
    16 N9           4.1430    98.9080    80.7080 N.2          1 CLM221   1.0000
    17 O9A          3.7760    99.8710    80.0390 O.co2        1 CLM221   0.0000
    18 O9B          3.6280    97.8060    80.5420 O.co2        1 CLM221  -1.0000
    19 C10          6.1310   100.0600    81.4800 C.ar         1 CLM221   0.0000
    20 C11          7.1360   100.2370    82.4300 C.ar         1 CLM221   0.0000
    21 H1           5.1535   104.1029    85.1574 H            1 CLM221   0.0000
    22 H2           7.9048   102.3509    84.5796 H            1 CLM221   0.0000
    23 H3           6.9428   100.1201    86.1423 H            1 CLM221   0.0000
    24 H4           8.7055   101.7555    87.1000 H            1 CLM221   0.0000
    25 H5           9.6888   100.6479    86.4123 H            1 CLM221   0.0000
    26 H6           7.7673    99.3415    87.7076 H            1 CLM221   0.0000
    27 H7           8.4055    98.7114    85.0145 H            1 CLM221   0.0000
    28 H8           9.7260    99.4414    83.2885 H            1 CLM221   0.0000
    29 H9           6.2009    97.8758    84.5748 H            1 CLM221   0.0000
    30 H10          4.4765    97.5721    82.9404 H            1 CLM221   0.0000
    31 H11          6.1091   100.6370    80.6636 H            1 CLM221   0.0000
    32 H12          7.8355   100.9389    82.2953 H            1 CLM221   0.0000
@<TRIPOS>BOND
     1    1    2       1
     2    1    3       1
     3    1    4       1
     4    4    5       2
     5    4    6      am
     6    6    7       1
     7    7    8       1
     8    7   10       1
     9    8    9       1
    10   10   11       1
    11   10   12       1
    12   12   13      ar
    13   12   20      ar
    14   13   14      ar
    15   14   15      ar
    16   15   16       1
    17   15   19      ar
    18   16   17      ar
    19   16   18      ar
    20   19   20      ar
    21    1   21       1
    22    6   22       1
    23    7   23       1
    24    8   24       1
    25    8   25       1
    26    9   26       1
    27   10   27       1
    28   11   28       1
    29   13   29       1
    30   14   30       1
    31   19   31       1
    32   20   32       1
@<TRIPOS>SUBSTRUCTURE
     1 CLM221      1 GROUP             4 M     CLM     0 **** CLM M 221
