@<TRIPOS>MOLECULE
3kjs_DQ1_4_ligand
   59    61     1     0     0
SMALL
NO_CHARGES


@<TRIPOS>ATOM
     1 C1          63.4990   -30.3060    26.4550 C.ar         1 DQ1602   0.0000
     2 N1          63.8740   -29.0290    26.2600 N.ar         1 DQ1602   0.0000
     3 O1          70.1940   -37.6850    25.9570 O.3          1 DQ1602   0.0000
     4 C2          64.2380   -31.3240    25.8590 C.ar         1 DQ1602   0.0000
     5 N2          62.4380   -30.5880    27.2100 N.pl3        1 DQ1602   0.0000
     6 O2          69.0820   -38.2680    23.5240 O.3          1 DQ1602   0.0000
     7 C3          64.6490   -33.6650    25.4160 C.ar         1 DQ1602   0.0000
     8 N3          65.2920   -27.4500    25.3240 N.pl3        1 DQ1602   0.0000
     9 O3          67.6110   -35.7430    20.1350 O.2          1 DQ1602   0.0000
    10 C4          64.2460   -35.1380    25.6190 C.3          1 DQ1602   0.0000
    11 N4          65.0570   -36.0540    24.7970 N.pl3        1 DQ1602   0.0000
    12 O4          69.3460   -34.3930    19.5900 O.3          1 DQ1602   0.0000
    13 C5          71.0090   -36.8330    26.7910 C.3          1 DQ1602   0.0000
    14 N5          65.6730   -29.6850    24.9170 N.ar         1 DQ1602   1.0000
    15 C6          68.5160   -38.2960    22.1810 C.3          1 DQ1602   0.0000
    16 C7          69.4960   -37.7760    21.1200 C.3          1 DQ1602   0.0000
    17 C8          69.7020   -36.2580    21.2280 C.3          1 DQ1602   0.0000
    18 C9          68.8060   -35.4570    20.2710 C.2          1 DQ1602   0.0000
    19 C10         69.2410   -31.9180    19.5340 C.3          1 DQ1602   0.0000
    20 C11         68.4700   -33.2270    19.6790 C.3          1 DQ1602   0.0000
    21 C12         64.9440   -28.7200    25.5010 C.ar         1 DQ1602   0.0000
    22 C13         66.3010   -36.4330    25.1190 C.ar         1 DQ1602   0.0000
    23 C14         67.0430   -37.1450    24.1770 C.ar         1 DQ1602   0.0000
    24 C15         68.3470   -37.5670    24.4520 C.ar         1 DQ1602   0.0000
    25 C16         68.9160   -37.2640    25.6940 C.ar         1 DQ1602   0.0000
    26 C17         68.1720   -36.5520    26.6430 C.ar         1 DQ1602   0.0000
    27 C18         66.8720   -36.1370    26.3580 C.ar         1 DQ1602   0.0000
    28 C19         65.7520   -33.3140    24.6320 C.ar         1 DQ1602   0.0000
    29 C20         65.3430   -30.9790    25.0770 C.ar         1 DQ1602   0.0000
    30 C21         66.1020   -31.9730    24.4610 C.ar         1 DQ1602   0.0000
    31 C22         63.8940   -32.6660    26.0300 C.ar         1 DQ1602   0.0000
    32 H1          62.1637   -31.5392    27.3516 H            1 DQ1602   0.0000
    33 H2          61.9160   -29.8485    27.6350 H            1 DQ1602   0.0000
    34 H3          66.0863   -27.2231    24.7604 H            1 DQ1602   0.0000
    35 H4          64.7596   -26.7210    25.7544 H            1 DQ1602   0.0000
    36 H5          63.2840   -35.2464    25.3685 H            1 DQ1602   0.0000
    37 H6          64.3684   -35.3758    26.5826 H            1 DQ1602   0.0000
    38 H7          64.6570   -36.4120    23.9533 H            1 DQ1602   0.0000
    39 H8          71.9120   -37.2463    26.9080 H            1 DQ1602   0.0000
    40 H9          71.1061   -35.9369    26.3579 H            1 DQ1602   0.0000
    41 H10         70.5732   -36.7258    27.6846 H            1 DQ1602   0.0000
    42 H11         67.6951   -37.7251    22.1668 H            1 DQ1602   0.0000
    43 H12         68.2702   -39.2388    21.9560 H            1 DQ1602   0.0000
    44 H13         69.1339   -37.9896    20.2127 H            1 DQ1602   0.0000
    45 H14         70.3776   -38.2317    21.2428 H            1 DQ1602   0.0000
    46 H15         70.6574   -36.0510    21.0173 H            1 DQ1602   0.0000
    47 H16         69.4986   -35.9754    22.1654 H            1 DQ1602   0.0000
    48 H17         68.6063   -31.1481    19.6006 H            1 DQ1602   0.0000
    49 H18         69.9238   -31.8510    20.2615 H            1 DQ1602   0.0000
    50 H19         69.6981   -31.8971    18.6448 H            1 DQ1602   0.0000
    51 H20         68.0120   -33.2348    20.5679 H            1 DQ1602   0.0000
    52 H21         67.7863   -33.2809    18.9512 H            1 DQ1602   0.0000
    53 H22         66.6350   -37.3574    23.2891 H            1 DQ1602   0.0000
    54 H23         68.5766   -36.3395    27.5325 H            1 DQ1602   0.0000
    55 H24         66.3486   -35.6274    27.0409 H            1 DQ1602   0.0000
    56 H25         66.2944   -34.0286    24.1903 H            1 DQ1602   0.0000
    57 H26         66.8924   -31.7271    23.9000 H            1 DQ1602   0.0000
    58 H27         63.1052   -32.9114    26.5935 H            1 DQ1602   0.0000
    59 H28         66.4662   -29.4398    24.3596 H            1 DQ1602   0.0000
@<TRIPOS>BOND
     1    1    2      ar
     2    1    4      ar
     3    1    5       1
     4    2   21      ar
     5    3   13       1
     6    3   25       1
     7    4   29      ar
     8    4   31      ar
     9    6   15       1
    10    6   24       1
    11    7   10       1
    12    7   28      ar
    13    7   31      ar
    14    8   21       1
    15    9   18       2
    16   10   11       1
    17   11   22       1
    18   12   18       1
    19   12   20       1
    20   14   21      ar
    21   14   29      ar
    22   15   16       1
    23   16   17       1
    24   17   18       1
    25   19   20       1
    26   22   23      ar
    27   22   27      ar
    28   23   24      ar
    29   24   25      ar
    30   25   26      ar
    31   26   27      ar
    32   28   30      ar
    33   29   30      ar
    34    5   32       1
    35    5   33       1
    36    8   34       1
    37    8   35       1
    38   10   36       1
    39   10   37       1
    40   11   38       1
    41   13   39       1
    42   13   40       1
    43   13   41       1
    44   15   42       1
    45   15   43       1
    46   16   44       1
    47   16   45       1
    48   17   46       1
    49   17   47       1
    50   19   48       1
    51   19   49       1
    52   19   50       1
    53   20   51       1
    54   20   52       1
    55   23   53       1
    56   26   54       1
    57   27   55       1
    58   28   56       1
    59   30   57       1
    60   31   58       1
    61   14   59       1
@<TRIPOS>SUBSTRUCTURE
     1 DQ1602      1 GROUP             4 D     DQ1     0 **** DQ1 D 602
