@<TRIPOS>MOLECULE
2j7y_E3O_1_ligand
   45    48     1     0     0
SMALL
NO_CHARGES


@<TRIPOS>ATOM
     1 C2          49.7830    31.9000    76.2760 C.3          1 E3O1454   0.0000
     2 C3          50.4290    31.8970    74.8960 C.3          1 E3O1454   0.0000
     3 C4          49.5510    31.2760    73.8090 C.3          1 E3O1454   0.0000
     4 C5          49.1450    29.8680    74.2640 C.3          1 E3O1454   0.0000
     5 C6          50.3860    28.9680    74.3150 C.3          1 E3O1454   0.0000
     6 C7          48.0930    29.1700    73.4030 C.3          1 E3O1454   0.0000
     7 O1          47.0650    30.0820    73.0190 O.3          1 E3O1454   0.0000
     8 C8          47.5330    28.0790    74.3380 C.3          1 E3O1454   0.0000
     9 O2          46.1110    27.9650    74.2300 O.3          1 E3O1454   0.0000
    10 C9          47.8970    28.4930    75.7650 C.3          1 E3O1454   0.0000
    11 C10         48.4480    29.9240    75.6110 C.3          1 E3O1454   0.0000
    12 C12         49.3460    30.4820    76.7230 C.3          1 E3O1454   0.0000
    13 C14         48.6870    30.5540    78.0810 C.3          1 E3O1454   0.0000
    14 C15         49.6690    30.9490    79.1890 C.3          1 E3O1454   0.0000
    15 C16         50.5210    32.1570    78.7970 C.ar         1 E3O1454   0.0000
    16 C17         51.2310    32.8500    79.7450 C.ar         1 E3O1454   0.0000
    17 C18         52.0110    33.9680    79.3860 C.ar         1 E3O1454   0.0000
    18 O3          52.6850    34.6570    80.3410 O.3          1 E3O1454   0.0000
    19 C19         52.0590    34.3770    78.0560 C.ar         1 E3O1454   0.0000
    20 C20         51.3660    33.7260    77.0470 C.ar         1 E3O1454   0.0000
    21 C21         50.6010    32.6040    77.3390 C.ar         1 E3O1454   0.0000
    22 H1          48.9401    32.4300    76.1830 H            1 E3O1454   0.0000
    23 H2          51.2822    31.3780    74.9477 H            1 E3O1454   0.0000
    24 H3          50.6290    32.8424    74.6387 H            1 E3O1454   0.0000
    25 H4          50.0629    31.2199    72.9518 H            1 E3O1454   0.0000
    26 H5          48.7339    31.8363    73.6732 H            1 E3O1454   0.0000
    27 H6          50.1205    28.0506    74.6116 H            1 E3O1454   0.0000
    28 H7          50.7990    28.9178    73.4056 H            1 E3O1454   0.0000
    29 H8          51.0476    29.3488    74.9610 H            1 E3O1454   0.0000
    30 H9          48.5164    28.7579    72.5962 H            1 E3O1454   0.0000
    31 H10         46.1849    29.7572    73.3653 H            1 E3O1454   0.0000
    32 H11         47.9588    27.2001    74.1232 H            1 E3O1454   0.0000
    33 H12         45.8830    27.2986    73.5201 H            1 E3O1454   0.0000
    34 H13         48.5927    27.8835    76.1451 H            1 E3O1454   0.0000
    35 H14         47.0890    28.4850    76.3542 H            1 E3O1454   0.0000
    36 H15         47.6652    30.5395    75.5193 H            1 E3O1454   0.0000
    37 H16         50.1600    29.9056    76.7942 H            1 E3O1454   0.0000
    38 H17         48.3017    29.6572    78.2985 H            1 E3O1454   0.0000
    39 H18         47.9532    31.2324    78.0459 H            1 E3O1454   0.0000
    40 H19         50.2736    30.1746    79.3755 H            1 E3O1454   0.0000
    41 H20         49.1509    31.1737    80.0143 H            1 E3O1454   0.0000
    42 H21         51.1947    32.5587    80.7010 H            1 E3O1454   0.0000
    43 H22         52.6279    34.3715    81.2977 H            1 E3O1454   0.0000
    44 H23         52.6161    35.1729    77.8188 H            1 E3O1454   0.0000
    45 H24         51.4170    34.0647    76.1075 H            1 E3O1454   0.0000
@<TRIPOS>BOND
     1    1    2       1
     2    1   12       1
     3    1   21       1
     4    2    3       1
     5    3    4       1
     6    4    5       1
     7    4    6       1
     8    4   11       1
     9    6    7       1
    10    6    8       1
    11    8    9       1
    12    8   10       1
    13   10   11       1
    14   11   12       1
    15   12   13       1
    16   13   14       1
    17   14   15       1
    18   15   16      ar
    19   15   21      ar
    20   16   17      ar
    21   17   18       1
    22   17   19      ar
    23   19   20      ar
    24   20   21      ar
    25    1   22       1
    26    2   23       1
    27    2   24       1
    28    3   25       1
    29    3   26       1
    30    5   27       1
    31    5   28       1
    32    5   29       1
    33    6   30       1
    34    7   31       1
    35    8   32       1
    36    9   33       1
    37   10   34       1
    38   10   35       1
    39   11   36       1
    40   12   37       1
    41   13   38       1
    42   13   39       1
    43   14   40       1
    44   14   41       1
    45   16   42       1
    46   18   43       1
    47   19   44       1
    48   20   45       1
@<TRIPOS>SUBSTRUCTURE
     1 E3O1454     1 GROUP             4 A     E3O     0 **** E3O A1454
