@<TRIPOS>MOLECULE
4d81_ADP_1_ligand
   39    41     1     0     0
SMALL
NO_CHARGES


@<TRIPOS>ATOM
     1 PB         -19.4670   -19.6750     1.4020 P.3          1 ADP1364   0.0000
     2 O1B        -20.1460   -18.7490     0.4340 O.co2        1 ADP1364   0.0000
     3 O2B        -17.9600   -19.5970     1.3870 O.co2        1 ADP1364  -1.0000
     4 O3B        -20.0100   -19.6830     2.8170 O.co2        1 ADP1364  -1.0000
     5 PA         -20.7390   -21.4120    -0.4400 P.3          1 ADP1364   0.0000
     6 O1A        -19.9110   -20.9400    -1.5910 O.co2        1 ADP1364   0.0000
     7 O2A        -22.1870   -20.9330    -0.3930 O.co2        1 ADP1364  -1.0000
     8 O3A        -19.8820   -21.1520     0.8870 O.3          1 ADP1364   0.0000
     9 O5'        -20.7320   -23.0200    -0.3740 O.3          1 ADP1364   0.0000
    10 C5'        -19.6520   -23.7650    -0.9190 C.3          1 ADP1364   0.0000
    11 C4'        -20.2430   -25.0710    -1.3740 C.3          1 ADP1364   0.0000
    12 O4'        -20.4590   -25.8400    -0.1870 O.3          1 ADP1364   0.0000
    13 C3'        -21.5630   -25.0440    -2.1680 C.3          1 ADP1364   0.0000
    14 O3'        -21.3870   -25.2840    -3.5850 O.3          1 ADP1364   0.0000
    15 C2'        -22.2640   -26.2490    -1.6310 C.3          1 ADP1364   0.0000
    16 O2'        -21.8510   -27.3650    -2.4550 O.3          1 ADP1364   0.0000
    17 C1'        -21.6950   -26.5230    -0.2560 C.3          1 ADP1364   0.0000
    18 N9         -22.5600   -26.1170     0.8740 N.pl3        1 ADP1364   0.0000
    19 C8         -22.2540   -25.1990     1.8000 C.2          1 ADP1364   0.0000
    20 N7         -23.2450   -25.1120     2.7150 N.2          1 ADP1364   0.0000
    21 C5         -24.1660   -25.9950     2.4110 C.ar         1 ADP1364   0.0000
    22 C6         -25.4520   -26.3900     2.9820 C.ar         1 ADP1364   0.0000
    23 N6         -25.9100   -25.7770     4.0860 N.pl3        1 ADP1364   0.0000
    24 N1         -26.1580   -27.3330     2.3380 N.ar         1 ADP1364   0.0000
    25 C2         -25.6950   -27.9400     1.2150 C.ar         1 ADP1364   0.0000
    26 N3         -24.5020   -27.6560     0.6660 N.ar         1 ADP1364   0.0000
    27 C4         -23.7120   -26.6920     1.2040 C.ar         1 ADP1364   0.0000
    28 H5'1       -18.9519   -23.9234    -0.2227 H            1 ADP1364   0.0000
    29 H5'2       -19.2481   -23.2772    -1.6929 H            1 ADP1364   0.0000
    30 H4'        -19.5582   -25.5439    -1.9285 H            1 ADP1364   0.0000
    31 H3'        -22.0816   -24.2065    -1.9959 H            1 ADP1364   0.0000
    32 H5         -21.4519   -26.2651    -3.7675 H            1 ADP1364   0.0000
    33 H2'        -23.2574   -26.1353    -1.6154 H            1 ADP1364   0.0000
    34 H7         -22.2967   -28.2002    -2.1328 H            1 ADP1364   0.0000
    35 H1'        -21.5169   -27.5040    -0.1791 H            1 ADP1364   0.0000
    36 H9         -21.4140   -24.6565     1.8126 H            1 ADP1364   0.0000
    37 H10        -26.7897   -26.0455     4.4785 H            1 ADP1364   0.0000
    38 H11        -25.3713   -25.0521     4.5153 H            1 ADP1364   0.0000
    39 H12        -26.2691   -28.6311     0.7758 H            1 ADP1364   0.0000
@<TRIPOS>BOND
     1    1    2      ar
     2    1    3      ar
     3    1    4      ar
     4    1    8       1
     5    5    6      ar
     6    5    7      ar
     7    5    8       1
     8    5    9       1
     9    9   10       1
    10   10   11       1
    11   11   12       1
    12   11   13       1
    13   12   17       1
    14   13   14       1
    15   13   15       1
    16   15   16       1
    17   15   17       1
    18   17   18       1
    19   18   19       1
    20   18   27       1
    21   19   20       2
    22   20   21       1
    23   21   22      ar
    24   21   27      ar
    25   22   23       1
    26   22   24      ar
    27   24   25      ar
    28   25   26      ar
    29   26   27      ar
    30   25   39       1
    31   23   38       1
    32   23   37       1
    33   10   28       1
    34   10   29       1
    35   11   30       1
    36   13   31       1
    37   14   32       1
    38   15   33       1
    39   16   34       1
    40   17   35       1
    41   19   36       1
@<TRIPOS>SUBSTRUCTURE
     1 ADP1364     1 GROUP             4 A     ADP     0 **** ADP A1364
