@<TRIPOS>MOLECULE
4e8w_IHA_1_ligand
   50    53     1     0     0
SMALL
NO_CHARGES


@<TRIPOS>ATOM
     1 O27         13.1860   -41.6630   -22.5900 O.co2        1 IHA501   0.0000
     2 C25         13.4870   -40.5200   -23.0010 C.2          1 IHA501   0.0000
     3 O26         12.6570   -39.5930   -23.1230 O.co2        1 IHA501  -1.0000
     4 C24         14.9190   -40.2340   -23.3820 C.3          1 IHA501   0.0000
     5 O23         15.0940   -38.8210   -23.4080 O.3          1 IHA501   0.0000
     6 C22         16.1970   -38.2720   -23.9930 C.ar         1 IHA501   0.0000
     7 C21         17.0250   -39.0580   -24.7900 C.ar         1 IHA501   0.0000
     8 C28         16.4660   -36.9250   -23.7860 C.ar         1 IHA501   0.0000
     9 C29         17.5810   -36.3520   -24.3730 C.ar         1 IHA501   0.0000
    10 C30         18.3970   -37.1510   -25.1610 C.ar         1 IHA501   0.0000
    11 C20         18.1470   -38.4970   -25.3880 C.ar         1 IHA501   0.0000
    12 N19         19.1210   -39.0220   -26.2040 N.2          1 IHA501   0.0000
    13 S31         19.7210   -36.6040   -25.9050 S.3          1 IHA501   0.0000
    14 C18         20.0620   -38.1020   -26.5690 C.2          1 IHA501   0.0000
    15 C17         21.3090   -38.1320   -27.4240 C.3          1 IHA501   0.0000
    16 N16         22.2430   -39.1050   -26.8930 N.pl3        1 IHA501   0.0000
    17 C15         22.6150   -39.0190   -25.6010 C.ar         1 IHA501   0.0000
    18 N14         23.5630   -38.1520   -25.1970 N.ar         1 IHA501   0.0000
    19 N13         23.9200   -38.0940   -23.8470 N.ar         1 IHA501   0.0000
    20 C12         23.3240   -38.9030   -22.9590 C.ar         1 IHA501   0.0000
    21 N32         22.0210   -39.8330   -24.7110 N.ar         1 IHA501   0.0000
    22 C11         22.3500   -39.7910   -23.4080 C.ar         1 IHA501   0.0000
    23 C10         21.6390   -40.7080   -22.4900 C.ar         1 IHA501   0.0000
    24 C3          22.1900   -41.9300   -22.1770 C.ar         1 IHA501   0.0000
    25 O2          23.4030   -42.2820   -22.7360 O.3          1 IHA501   0.0000
    26 C1          24.4970   -42.7410   -21.9200 C.3          1 IHA501   0.0000
    27 C7          20.4240   -40.3380   -21.9630 C.ar         1 IHA501   0.0000
    28 O8          19.9000   -39.1140   -22.2900 O.3          1 IHA501   0.0000
    29 C9          18.7490   -38.6060   -21.6020 C.3          1 IHA501   0.0000
    30 C6          19.7460   -41.1980   -21.1080 C.ar         1 IHA501   0.0000
    31 C5          20.2950   -42.4340   -20.7880 C.ar         1 IHA501   0.0000
    32 C4          21.5180   -42.8050   -21.3290 C.ar         1 IHA501   0.0000
    33 H1          15.1126   -40.6166   -24.2854 H            1 IHA501   0.0000
    34 H2          15.5368   -40.6401   -22.7087 H            1 IHA501   0.0000
    35 H3          16.8126   -40.0248   -24.9319 H            1 IHA501   0.0000
    36 H4          15.8577   -36.3725   -23.2162 H            1 IHA501   0.0000
    37 H5          17.7934   -35.3850   -24.2324 H            1 IHA501   0.0000
    38 H6          21.7349   -37.2272   -27.4223 H            1 IHA501   0.0000
    39 H7          21.0639   -38.3833   -28.3604 H            1 IHA501   0.0000
    40 H8          22.6063   -39.8303   -27.4778 H            1 IHA501   0.0000
    41 H9          23.5746   -38.8691   -21.9915 H            1 IHA501   0.0000
    42 H10         25.2839   -42.9458   -22.5020 H            1 IHA501   0.0000
    43 H11         24.7446   -42.0288   -21.2632 H            1 IHA501   0.0000
    44 H12         24.2222   -43.5671   -21.4281 H            1 IHA501   0.0000
    45 H13         18.5100   -37.7076   -21.9705 H            1 IHA501   0.0000
    46 H14         17.9808   -39.2335   -21.7290 H            1 IHA501   0.0000
    47 H15         18.9535   -38.5226   -20.6267 H            1 IHA501   0.0000
    48 H16         18.8635   -40.9278   -20.7231 H            1 IHA501   0.0000
    49 H17         19.8107   -43.0536   -20.1703 H            1 IHA501   0.0000
    50 H18         21.9143   -43.6967   -21.1105 H            1 IHA501   0.0000
@<TRIPOS>BOND
     1    1    2      ar
     2    2    3      ar
     3    2    4       1
     4    4    5       1
     5    5    6       1
     6    6    7      ar
     7    6    8      ar
     8    7   11      ar
     9    8    9      ar
    10    9   10      ar
    11   10   11      ar
    12   10   13       1
    13   11   12       1
    14   12   14       2
    15   13   14       1
    16   14   15       1
    17   15   16       1
    18   16   17       1
    19   17   18      ar
    20   17   21      ar
    21   18   19      ar
    22   19   20      ar
    23   20   22      ar
    24   21   22      ar
    25   22   23       1
    26   23   24      ar
    27   23   27      ar
    28   24   25       1
    29   24   32      ar
    30   25   26       1
    31   27   28       1
    32   27   30      ar
    33   28   29       1
    34   30   31      ar
    35   31   32      ar
    36   32   50       1
    37    4   33       1
    38    4   34       1
    39    7   35       1
    40    8   36       1
    41    9   37       1
    42   15   38       1
    43   15   39       1
    44   16   40       1
    45   20   41       1
    46   26   42       1
    47   26   43       1
    48   26   44       1
    49   29   45       1
    50   29   46       1
    51   29   47       1
    52   30   48       1
    53   31   49       1
@<TRIPOS>SUBSTRUCTURE
     1 IHA501      1 GROUP             4 A     IHA     0 **** IHA A 501
