@<TRIPOS>MOLECULE
3fkq_ATP_1_ligand
   43    45     1     0     0
SMALL
NO_CHARGES


@<TRIPOS>ATOM
     1 PG           0.6060    56.2820    26.2770 P.3          1 ATP500   0.0000
     2 O1G         -0.8720    56.1870    26.1290 O.co2        1 ATP500   0.0000
     3 O2G          1.3630    57.1070    25.2780 O.co2        1 ATP500  -1.0000
     4 O3G          1.0590    56.4230    27.7160 O.co2        1 ATP500  -1.0000
     5 PB           1.4130    54.2870    24.4250 P.3          1 ATP500   0.0000
     6 O1B          2.5980    54.9570    23.8530 O.co2        1 ATP500   0.0000
     7 O2B          0.1660    53.9950    23.5720 O.co2        1 ATP500  -1.0000
     8 O3B          1.0570    54.7550    25.8990 O.3          1 ATP500   0.0000
     9 PA           3.3970    52.3610    25.0680 P.3          1 ATP500   0.0000
    10 O1A          3.9070    52.9610    26.3330 O.co2        1 ATP500   0.0000
    11 O2A          4.2780    52.3770    23.8340 O.co2        1 ATP500  -1.0000
    12 O3A          1.9150    52.7520    24.7120 O.3          1 ATP500   0.0000
    13 O5'          3.1480    50.8060    25.4400 O.3          1 ATP500   0.0000
    14 C5'          2.0880    50.5030    26.3340 C.3          1 ATP500   0.0000
    15 C4'          2.2700    49.0980    26.8860 C.3          1 ATP500   0.0000
    16 O4'          1.9900    48.1670    25.8570 O.3          1 ATP500   0.0000
    17 C3'          3.6920    48.8130    27.3170 C.3          1 ATP500   0.0000
    18 O3'          3.5900    47.9970    28.4550 O.3          1 ATP500   0.0000
    19 C2'          4.3080    48.0970    26.1380 C.3          1 ATP500   0.0000
    20 O2'          5.3600    47.1970    26.4880 O.3          1 ATP500   0.0000
    21 C1'          3.1200    47.3250    25.6480 C.3          1 ATP500   0.0000
    22 N9           3.1160    46.9280    24.2370 N.pl3        1 ATP500   0.0000
    23 C8           3.2940    47.7190    23.1780 C.2          1 ATP500   0.0000
    24 N7           3.1700    47.0200    22.0210 N.2          1 ATP500   0.0000
    25 C5           2.9240    45.7490    22.3510 C.ar         1 ATP500   0.0000
    26 C6           2.7220    44.4950    21.6130 C.ar         1 ATP500   0.0000
    27 N6           2.7320    44.4970    20.2610 N.pl3        1 ATP500   0.0000
    28 N1           2.4790    43.3780    22.3460 N.ar         1 ATP500   0.0000
    29 C2           2.4410    43.3900    23.6990 C.ar         1 ATP500   0.0000
    30 N3           2.6280    44.5000    24.4250 N.ar         1 ATP500   0.0000
    31 C4           2.8790    45.6880    23.8180 C.ar         1 ATP500   0.0000
    32 H5'1         1.2163    50.5587    25.8472 H            1 ATP500   0.0000
    33 H5'2         2.0912    51.1596    27.0882 H            1 ATP500   0.0000
    34 H4'          1.6469    48.9520    27.6544 H            1 ATP500   0.0000
    35 H3'          4.1835    49.6593    27.5224 H            1 ATP500   0.0000
    36 H5           4.5060    47.7736    28.7882 H            1 ATP500   0.0000
    37 H2'          4.6158    48.7510    25.4470 H            1 ATP500   0.0000
    38 H7           5.7164    46.7629    25.6606 H            1 ATP500   0.0000
    39 H1'          3.0167    46.5052    26.2113 H            1 ATP500   0.0000
    40 H9           3.4926    48.6977    23.2295 H            1 ATP500   0.0000
    41 H10          2.5945    43.6433    19.7587 H            1 ATP500   0.0000
    42 H11          2.8769    45.3522    19.7633 H            1 ATP500   0.0000
    43 H12          2.2652    42.5304    24.1788 H            1 ATP500   0.0000
@<TRIPOS>BOND
     1    1    2      ar
     2    1    3      ar
     3    1    4      ar
     4    1    8       1
     5    5    6      ar
     6    5    7      ar
     7    5    8       1
     8    5   12       1
     9    9   10      ar
    10    9   11      ar
    11    9   12       1
    12    9   13       1
    13   13   14       1
    14   14   15       1
    15   15   16       1
    16   15   17       1
    17   16   21       1
    18   17   18       1
    19   17   19       1
    20   19   20       1
    21   19   21       1
    22   21   22       1
    23   22   23       1
    24   22   31       1
    25   23   24       2
    26   24   25       1
    27   25   26      ar
    28   25   31      ar
    29   26   27       1
    30   26   28      ar
    31   28   29      ar
    32   29   30      ar
    33   30   31      ar
    34   29   43       1
    35   27   42       1
    36   27   41       1
    37   23   40       1
    38   14   32       1
    39   14   33       1
    40   15   34       1
    41   17   35       1
    42   18   36       1
    43   19   37       1
    44   20   38       1
    45   21   39       1
@<TRIPOS>SUBSTRUCTURE
     1 ATP500      1 GROUP             4 A     ATP     0 **** ATP A 500
