@<TRIPOS>MOLECULE
3qgd_26S_3_ligand
   72    75     1     0     0
SMALL
NO_CHARGES


@<TRIPOS>ATOM
     1 C1          20.1960     6.2080    71.8360 C.ar         1 26S602   0.0000
     2 C2          22.5150     6.8790    72.1160 C.ar         1 26S602   0.0000
     3 C3          26.1760     0.3460    75.2800 C.ar         1 26S602   0.0000
     4 C4          28.0830    -0.0300    73.8200 C.ar         1 26S602   0.0000
     5 C5          19.8430     6.9870    72.9460 C.ar         1 26S602   0.0000
     6 C6          22.1610     7.6620    73.2150 C.ar         1 26S602   0.0000
     7 C7          25.8290     1.4590    74.5140 C.ar         1 26S602   0.0000
     8 C8          27.7350     1.0840    73.0480 C.ar         1 26S602   0.0000
     9 C9          21.3290     0.1060    69.2580 C.ar         1 26S602   0.0000
    10 C10         27.3040    -0.4000    74.9360 C.ar         1 26S602   0.0000
    11 C11         21.5320     6.1610    71.4230 C.ar         1 26S602   0.0000
    12 C12         20.8280     7.7150    73.6410 C.ar         1 26S602   0.0000
    13 C13         26.5930     1.8310    73.3920 C.ar         1 26S602   0.0000
    14 C14         22.6590     0.3480    68.9350 C.ar         1 26S602   0.0000
    15 C15         20.5070    -0.2210    68.1910 C.ar         1 26S602   0.0000
    16 C16         22.2290    -0.0470    66.6970 C.ar         1 26S602   0.0000
    17 C17         22.4810     3.1430    71.3380 C.2          1 26S602   0.0000
    18 C18         24.9810     0.9370    69.5910 C.3          1 26S602   0.0000
    19 C19         25.3630     2.3700    69.9560 C.3          1 26S602   0.0000
    20 C20         23.2490     0.7930    71.3680 C.3          1 26S602   0.0000
    21 C21         23.5660     2.2150    71.8180 C.3          1 26S602   0.0000
    22 C22         29.1260    -1.5390    76.2420 C.3          1 26S602   0.0000
    23 C23         19.1620     8.4530    75.2210 C.3          1 26S602   0.0000
    24 C24         18.3460    -0.8180    67.3220 C.3          1 26S602   0.0000
    25 C25         24.0750     0.1580    65.1820 C.3          1 26S602   0.0000
    26 C26         27.6720    -1.5910    75.7650 C.3          1 26S602   0.0000
    27 C27         21.9320     5.3130    70.2570 C.3          1 26S602   0.0000
    28 N28         23.1290     0.2750    67.6600 N.ar         1 26S602   0.0000
    29 N29         20.9180    -0.3040    66.8950 N.ar         1 26S602   0.0000
    30 N30         23.5810     0.6780    69.9450 N.pl3        1 26S602   0.0000
    31 N31         24.9110     2.7100    71.3380 N.3          1 26S602   0.0000
    32 N32         22.8770     4.3280    70.7530 N.am         1 26S602   0.0000
    33 O33         21.3180     2.7860    71.4820 O.2          1 26S602   0.0000
    34 O34         25.4450     4.1490    73.3930 O.2          1 26S602   0.0000
    35 O35         27.2780     3.6860    71.6850 O.2          1 26S602   0.0000
    36 O36         20.5070     8.4710    74.7360 O.3          1 26S602   0.0000
    37 O37         19.1850    -0.4770    68.4350 O.3          1 26S602   0.0000
    38 O38         22.6910    -0.1240    65.4010 O.3          1 26S602   0.0000
    39 S39         26.1120     3.2660    72.4500 S.o2         1 26S602   0.0000
    40 H1          19.4979     5.6893    71.3425 H            1 26S602   0.0000
    41 H2          23.4699     6.8304    71.8231 H            1 26S602   0.0000
    42 H3          25.6207     0.0847    76.0695 H            1 26S602   0.0000
    43 H4          28.8905    -0.5681    73.5785 H            1 26S602   0.0000
    44 H5          18.8896     7.0261    73.2453 H            1 26S602   0.0000
    45 H6          22.8608     8.1867    73.6998 H            1 26S602   0.0000
    46 H7          25.0264     2.0000    74.7655 H            1 26S602   0.0000
    47 H8          28.2920     1.3466    72.2601 H            1 26S602   0.0000
    48 H9          20.9883     0.1639    70.1964 H            1 26S602   0.0000
    49 H10         25.5704     0.3012    70.0894 H            1 26S602   0.0000
    50 H11         25.1028     0.8033    68.6075 H            1 26S602   0.0000
    51 H12         24.9328     2.9982    69.3076 H            1 26S602   0.0000
    52 H13         26.3570     2.4666    69.9042 H            1 26S602   0.0000
    53 H14         22.2768     0.6034    71.5051 H            1 26S602   0.0000
    54 H15         23.7934     0.1415    71.8963 H            1 26S602   0.0000
    55 H16         23.5682     2.2309    72.8179 H            1 26S602   0.0000
    56 H17         29.3264    -2.3513    76.7897 H            1 26S602   0.0000
    57 H18         29.7359    -1.5123    75.4500 H            1 26S602   0.0000
    58 H19         29.2654    -0.7195    76.7978 H            1 26S602   0.0000
    59 H20         19.0874     9.0508    76.0192 H            1 26S602   0.0000
    60 H21         18.5447     8.7761    74.5037 H            1 26S602   0.0000
    61 H22         18.9133     7.5195    75.4793 H            1 26S602   0.0000
    62 H23         17.4130    -0.9775    67.6445 H            1 26S602   0.0000
    63 H24         18.3466    -0.0670    66.6617 H            1 26S602   0.0000
    64 H25         18.6937    -1.6471    66.8842 H            1 26S602   0.0000
    65 H26         24.2833     0.0688    64.2080 H            1 26S602   0.0000
    66 H27         24.2767     1.0904    65.4820 H            1 26S602   0.0000
    67 H28         24.6333    -0.4878    65.7028 H            1 26S602   0.0000
    68 H29         27.5427    -2.4171    75.2165 H            1 26S602   0.0000
    69 H30         27.0721    -1.6243    76.5644 H            1 26S602   0.0000
    70 H31         22.3625     5.8780    69.5531 H            1 26S602   0.0000
    71 H32         21.1295     4.8562    69.8732 H            1 26S602   0.0000
    72 H33         23.8553     4.5165    70.6669 H            1 26S602   0.0000
@<TRIPOS>BOND
     1    1    5      ar
     2    1   11      ar
     3    2    6      ar
     4    2   11      ar
     5    3    7      ar
     6    3   10      ar
     7    4    8      ar
     8    4   10      ar
     9    5   12      ar
    10    6   12      ar
    11    7   13      ar
    12    8   13      ar
    13    9   14      ar
    14    9   15      ar
    15   10   26       1
    16   11   27       1
    17   12   36       1
    18   13   39       1
    19   14   28      ar
    20   14   30       1
    21   15   29      ar
    22   15   37       1
    23   16   28      ar
    24   16   29      ar
    25   16   38       1
    26   17   21       1
    27   17   32      am
    28   17   33       2
    29   18   19       1
    30   18   30       1
    31   19   31       1
    32   20   21       1
    33   20   30       1
    34   21   31       1
    35   22   26       1
    36   23   36       1
    37   24   37       1
    38   25   38       1
    39   27   32       1
    40   31   39       1
    41   34   39       2
    42   35   39       2
    43    1   40       1
    44    2   41       1
    45    3   42       1
    46    4   43       1
    47    5   44       1
    48    6   45       1
    49    7   46       1
    50    8   47       1
    51    9   48       1
    52   18   49       1
    53   18   50       1
    54   19   51       1
    55   19   52       1
    56   20   53       1
    57   20   54       1
    58   21   55       1
    59   22   56       1
    60   22   57       1
    61   22   58       1
    62   23   59       1
    63   23   60       1
    64   23   61       1
    65   24   62       1
    66   24   63       1
    67   24   64       1
    68   25   65       1
    69   25   66       1
    70   25   67       1
    71   26   68       1
    72   26   69       1
    73   27   70       1
    74   27   71       1
    75   32   72       1
@<TRIPOS>SUBSTRUCTURE
     1 26S602      1 GROUP             4 B     26S     0 **** 26S B 602
