@<TRIPOS>MOLECULE
4nvk_2NY_1_ligand
   32    33     1     0     0
SMALL
NO_CHARGES


@<TRIPOS>ATOM
     1 CAA         21.2380     5.9060    -4.1160 C.3          1 2NY302   0.0000
     2 CAH         21.8550     4.4790    -4.2170 C.3          1 2NY302   0.0000
     3 NAP         21.6280     3.6590    -3.0120 N.pl3        1 2NY302   0.0000
     4 CAI         22.5870     3.7680    -1.9110 C.3          1 2NY302   0.0000
     5 CAB         24.0010     3.6090    -2.4970 C.3          1 2NY302   0.0000
     6 C2          20.4970     2.9870    -2.8350 C.ar         1 2NY302   0.0000
     7 N1          19.6020     3.0110    -3.8780 N.ar         1 2NY302   0.0000
     8 N3          20.1910     2.3970    -1.6400 N.ar         1 2NY302   0.0000
     9 C4          18.9920     1.7880    -1.4250 C.ar         1 2NY302   0.0000
    10 CAF         18.6760     1.2010    -0.1860 C.ar         1 2NY302   0.0000
    11 CAD         17.4680     0.5820     0.0220 C.ar         1 2NY302   0.0000
    12 CAE         16.5260     0.5530    -1.0080 C.ar         1 2NY302   0.0000
    13 CAG         16.7950     1.1590    -2.2630 C.ar         1 2NY302   0.0000
    14 C5          18.0530     1.7560    -2.4790 C.ar         1 2NY302   0.0000
    15 C6          18.4370     2.4060    -3.6870 C.ar         1 2NY302   0.0000
    16 NAC         17.5980     2.4690    -4.6870 N.pl3        1 2NY302   0.0000
    17 HAA1        21.4246     6.4103    -4.9591 H            1 2NY302   0.0000
    18 HAA2        20.2496     5.8331    -3.9830 H            1 2NY302   0.0000
    19 HAA3        21.6438     6.3905    -3.3410 H            1 2NY302   0.0000
    20 HAH1        22.8408     4.5687    -4.3589 H            1 2NY302   0.0000
    21 HAH2        21.4466     4.0113    -5.0009 H            1 2NY302   0.0000
    22 HAI1        22.4152     3.0482    -1.2384 H            1 2NY302   0.0000
    23 HAI2        22.4999     4.6622    -1.4719 H            1 2NY302   0.0000
    24 HAB1        24.6761     3.6798    -1.7627 H            1 2NY302   0.0000
    25 HAB2        24.0806     2.7149    -2.9378 H            1 2NY302   0.0000
    26 HAB3        24.1652     4.3289    -3.1714 H            1 2NY302   0.0000
    27 HAF         19.3439     1.2352     0.5574 H            1 2NY302   0.0000
    28 HAD         17.2648     0.1557     0.9035 H            1 2NY302   0.0000
    29 HAE         15.6480     0.0981    -0.8592 H            1 2NY302   0.0000
    30 HAG         16.1017     1.1622    -2.9836 H            1 2NY302   0.0000
    31 HAC1        16.6999     2.0353    -4.6143 H            1 2NY302   0.0000
    32 HAC2        17.8541     2.9509    -5.5249 H            1 2NY302   0.0000
@<TRIPOS>BOND
     1    1    2       1
     2    2    3       1
     3    3    4       1
     4    3    6       1
     5    4    5       1
     6    6    7      ar
     7    6    8      ar
     8    7   15      ar
     9    8    9      ar
    10    9   10      ar
    11    9   14      ar
    12   10   11      ar
    13   11   12      ar
    14   12   13      ar
    15   13   14      ar
    16   14   15      ar
    17   15   16       1
    18    1   17       1
    19    1   18       1
    20    1   19       1
    21    2   20       1
    22    2   21       1
    23    4   22       1
    24    4   23       1
    25    5   24       1
    26    5   25       1
    27    5   26       1
    28   10   27       1
    29   11   28       1
    30   12   29       1
    31   13   30       1
    32   16   31       1
    33   16   32       1
@<TRIPOS>SUBSTRUCTURE
     1 2NY302      1 GROUP             4 B     2NY     0 **** 2NY B 302
