@<TRIPOS>MOLECULE
3pfe_IMD_1_ligand
    9     9     1     0     0
SMALL
NO_CHARGES


@<TRIPOS>ATOM
     1 N1          39.2220    16.9640    39.6840 N.2          1 IMD513   0.0000
     2 C2          38.2130    16.3610    39.0340 C.2          1 IMD513   0.0000
     3 N3          38.7390    15.7860    37.9220 N.pl3        1 IMD513   0.0000
     4 C4          40.0550    16.0350    37.8510 C.2          1 IMD513   0.0000
     5 C5          40.3800    16.7730    38.9860 C.2          1 IMD513   0.0000
     6 H1          37.2539    16.3395    39.3162 H            1 IMD513   0.0000
     7 H2          40.6800    15.7471    37.1254 H            1 IMD513   0.0000
     8 H3          41.2894    17.1011    39.2417 H            1 IMD513   0.0000
     9 H4          38.2202    15.2539    37.2528 H            1 IMD513   0.0000
@<TRIPOS>BOND
     1    1    2       2
     2    1    5       1
     3    2    3       1
     4    3    4       1
     5    4    5       2
     6    5    8       1
     7    2    6       1
     8    4    7       1
     9    3    9       1
@<TRIPOS>SUBSTRUCTURE
     1 IMD513      1 GROUP             4 A     IMD     0 **** IMD A 513
