@<TRIPOS>MOLECULE
2pkr_NDP_5_ligand
   72    76     1     0     0
SMALL
NO_CHARGES


@<TRIPOS>ATOM
     1 PA           1.9440   -66.9820   -13.5580 P.3          1 NDP379   0.0000
     2 O1A          2.6430   -68.0240   -14.4150 O.co2        1 NDP379   0.0000
     3 O2A          3.0840   -65.9140   -13.3650 O.co2        1 NDP379  -1.0000
     4 O5B          1.5310   -67.3770   -11.8470 O.3          1 NDP379   0.0000
     5 C5B          1.7590   -68.4480   -11.0160 C.3          1 NDP379   0.0000
     6 C4B          2.6620   -69.4580   -11.4590 C.3          1 NDP379   0.0000
     7 O4B          2.5010   -70.8900   -10.6650 O.3          1 NDP379   0.0000
     8 C3B          4.3250   -69.4220   -11.5870 C.3          1 NDP379   0.0000
     9 O3B          5.1060   -68.4470   -10.6760 O.3          1 NDP379   0.0000
    10 C2B          4.4450   -71.0200   -11.6320 C.3          1 NDP379   0.0000
    11 O2B          5.1980   -72.0660   -12.1000 O.3          1 NDP379   0.0000
    12 C1B          3.3440   -71.7310   -11.2540 C.3          1 NDP379   0.0000
    13 N9A          2.8710   -73.0690   -10.7800 N.pl3        1 NDP379   0.0000
    14 C8A          2.3090   -73.9100   -11.7280 C.2          1 NDP379   0.0000
    15 N7A          2.0410   -75.0980   -11.4720 N.2          1 NDP379   0.0000
    16 C5A          2.4050   -75.2130   -10.0960 C.ar         1 NDP379   0.0000
    17 C6A          2.3320   -76.3860    -9.2670 C.ar         1 NDP379   0.0000
    18 N6A          1.8840   -77.5510    -9.6840 N.pl3        1 NDP379   0.0000
    19 N1A          2.7810   -76.1380    -7.8710 N.ar         1 NDP379   0.0000
    20 C2A          3.2660   -74.9360    -7.4950 C.ar         1 NDP379   0.0000
    21 N3A          3.4050   -73.7380    -8.2840 N.ar         1 NDP379   0.0000
    22 C4A          2.9100   -73.9080    -9.6260 C.ar         1 NDP379   0.0000
    23 O3           0.6780   -66.3180   -13.6950 O.3          1 NDP379   0.0000
    24 PN          -0.5810   -65.4840   -13.2090 P.3          1 NDP379   0.0000
    25 O1N         -0.8310   -64.5230   -14.2760 O.co2        1 NDP379   0.0000
    26 O2N         -0.3610   -65.1230   -11.6510 O.co2        1 NDP379  -1.0000
    27 O5D         -1.8760   -66.6540   -13.3530 O.3          1 NDP379   0.0000
    28 C5D         -2.4940   -67.5530   -12.2110 C.3          1 NDP379   0.0000
    29 C4D         -3.8410   -67.4850   -12.4000 C.3          1 NDP379   0.0000
    30 O4D         -4.5380   -66.5480   -11.5430 O.3          1 NDP379   0.0000
    31 C3D         -4.8120   -68.3280   -12.9780 C.3          1 NDP379   0.0000
    32 O3D         -4.2420   -69.3210   -13.8770 O.3          1 NDP379   0.0000
    33 C2D         -5.7250   -66.9450   -13.4220 C.2          1 NDP379   0.0000
    34 O2D         -6.0540   -66.5670   -14.4100 O.2          1 NDP379   0.0000
    35 C1D         -5.0990   -65.5960   -12.5650 C.3          1 NDP379   0.0000
    36 N1N         -5.5360   -64.5960   -13.5430 N.pl3        1 NDP379   0.0000
    37 C2N         -4.6250   -63.6910   -14.0520 C.2          1 NDP379   0.0000
    38 C3N         -4.6720   -62.3220   -13.8740 C.2          1 NDP379   0.0000
    39 C7N         -3.6760   -61.5520   -14.6170 C.2          1 NDP379   0.0000
    40 O7N         -3.9820   -60.4130   -15.0170 O.2          1 NDP379   0.0000
    41 N7N         -2.4840   -62.3160   -14.8140 N.am         1 NDP379   0.0000
    42 C4N         -5.7570   -61.6240   -13.0720 C.3          1 NDP379   0.0000
    43 C5N         -6.7070   -62.7320   -12.6040 C.2          1 NDP379   0.0000
    44 C6N         -6.5570   -64.0280   -12.8660 C.2          1 NDP379   0.0000
    45 P2B          5.9010   -72.2720   -13.5290 P.3          1 NDP379   0.0000
    46 O1X          6.3580   -73.6350   -13.9650 O.co2        1 NDP379   0.0000
    47 O2X          5.1050   -71.4640   -14.5450 O.co2        1 NDP379  -1.0000
    48 O3X          7.1820   -71.4260   -12.9540 O.co2        1 NDP379  -1.0000
    49 H5B1         0.8770   -68.8893   -10.8508 H            1 NDP379   0.0000
    50 H5B2         2.1169   -68.0858   -10.1554 H            1 NDP379   0.0000
    51 H4B          2.3546   -69.6634   -12.3882 H            1 NDP379   0.0000
    52 H3B          4.5112   -69.1170   -12.5210 H            1 NDP379   0.0000
    53 H5           6.0854   -68.5320   -10.8590 H            1 NDP379   0.0000
    54 H2B          4.8525   -71.0669   -10.7200 H            1 NDP379   0.0000
    55 H1B          2.8959   -71.7504   -12.1478 H            1 NDP379   0.0000
    56 H8A          2.1139   -73.5527   -12.6414 H            1 NDP379   0.0000
    57 H6A1         1.8584   -78.3301    -9.0577 H            1 NDP379   0.0000
    58 H6A2         1.5692   -77.6571   -10.6272 H            1 NDP379   0.0000
    59 H2A          3.5686   -74.8677    -6.5443 H            1 NDP379   0.0000
    60 H5D1        -2.2469   -67.1961   -11.3101 H            1 NDP379   0.0000
    61 H5D2        -2.1744   -68.4968   -12.2948 H            1 NDP379   0.0000
    62 H4D         -3.7878   -66.8644   -13.1823 H            1 NDP379   0.0000
    63 H3D         -5.2954   -68.8050   -12.2440 H            1 NDP379   0.0000
    64 H16         -4.9741   -69.8875   -14.2553 H            1 NDP379   0.0000
    65 H1D         -5.9483   -65.4981   -12.0462 H            1 NDP379   0.0000
    66 H2N         -3.8688   -64.0572   -14.5943 H            1 NDP379   0.0000
    67 H7N1        -1.7112   -61.9182   -15.3085 H            1 NDP379   0.0000
    68 H7N2        -2.4229   -63.2482   -14.4573 H            1 NDP379   0.0000
    69 H4N1        -6.2450   -60.9658   -13.6452 H            1 NDP379   0.0000
    70 H4N2        -5.3593   -61.1510   -12.2858 H            1 NDP379   0.0000
    71 H5N         -7.5007   -62.4600   -12.0599 H            1 NDP379   0.0000
    72 H6N         -7.2707   -64.6417   -12.5283 H            1 NDP379   0.0000
@<TRIPOS>BOND
     1    1    2      ar
     2    1    3      ar
     3    1    4       1
     4    1   23       1
     5    4    5       1
     6    5    6       1
     7    6    7       1
     8    6    8       1
     9    7   12       1
    10    8    9       1
    11    8   10       1
    12   10   11       1
    13   10   12       1
    14   11   45       1
    15   12   13       1
    16   13   14       1
    17   13   22       1
    18   14   15       2
    19   15   16       1
    20   16   17      ar
    21   16   22      ar
    22   17   18       1
    23   17   19      ar
    24   19   20      ar
    25   20   21      ar
    26   21   22      ar
    27   23   24       1
    28   24   25      ar
    29   24   26      ar
    30   24   27       1
    31   27   28       1
    32   28   29       1
    33   29   30       1
    34   29   31       1
    35   30   35       1
    36   31   32       1
    37   31   33       1
    38   33   34       2
    39   33   35       1
    40   35   36       1
    41   36   37       1
    42   36   44       1
    43   37   38       2
    44   38   39       1
    45   38   42       1
    46   39   40       2
    47   39   41      am
    48   42   43       1
    49   43   44       2
    50   45   46      ar
    51   45   47      ar
    52   45   48      ar
    53   43   71       1
    54    5   49       1
    55    5   50       1
    56    6   51       1
    57    8   52       1
    58    9   53       1
    59   10   54       1
    60   12   55       1
    61   14   56       1
    62   18   57       1
    63   18   58       1
    64   20   59       1
    65   44   72       1
    66   28   60       1
    67   28   61       1
    68   29   62       1
    69   31   63       1
    70   32   64       1
    71   35   65       1
    72   37   66       1
    73   41   67       1
    74   41   68       1
    75   42   69       1
    76   42   70       1
@<TRIPOS>SUBSTRUCTURE
     1 NDP379      1 GROUP             4 H     NDP     0 **** NDP H 379
