@<TRIPOS>MOLECULE
1vc9_ATP_1_ligand
   43    45     1     0     0
SMALL
NO_CHARGES


@<TRIPOS>ATOM
     1 PG         -39.1790    69.4070   103.4620 P.3          1 ATP1001   0.0000
     2 O1G        -39.9970    70.2100   104.4230 O.co2        1 ATP1001   0.0000
     3 O2G        -37.6540    69.6350   103.6470 O.co2        1 ATP1001  -1.0000
     4 O3G        -39.5330    67.9200   103.6560 O.co2        1 ATP1001  -1.0000
     5 PB         -40.5240    71.0230   101.5680 P.3          1 ATP1001   0.0000
     6 O1B        -40.6580    70.9610   100.0860 O.co2        1 ATP1001   0.0000
     7 O2B        -40.0160    72.3640   102.0850 O.co2        1 ATP1001  -1.0000
     8 O3B        -39.6220    69.7880   101.9580 O.3          1 ATP1001   0.0000
     9 PA         -42.8990    71.4170   103.2010 P.3          1 ATP1001   0.0000
    10 O1A        -43.1400    70.5140   104.3350 O.co2        1 ATP1001   0.0000
    11 O2A        -42.3370    72.7450   103.6260 O.co2        1 ATP1001  -1.0000
    12 O3A        -41.9430    70.6480   102.1910 O.3          1 ATP1001   0.0000
    13 O5'        -44.1900    71.5720   102.3190 O.3          1 ATP1001   0.0000
    14 C5'        -44.1550    72.4400   101.2150 C.3          1 ATP1001   0.0000
    15 C4'        -45.3550    72.1440   100.3440 C.3          1 ATP1001   0.0000
    16 O4'        -46.5740    72.3090   101.0720 O.3          1 ATP1001   0.0000
    17 C3'        -45.4320    73.0610    99.1460 C.3          1 ATP1001   0.0000
    18 O3'        -44.7380    72.4510    98.0710 O.3          1 ATP1001   0.0000
    19 C2'        -46.9330    73.2330    98.9530 C.3          1 ATP1001   0.0000
    20 O2'        -47.5790    72.2890    98.1660 O.3          1 ATP1001   0.0000
    21 C1'        -47.4430    73.2150   100.3740 C.3          1 ATP1001   0.0000
    22 N9         -47.4610    74.4840   101.2040 N.pl3        1 ATP1001   0.0000
    23 C8         -46.3690    75.2700   101.5440 C.2          1 ATP1001   0.0000
    24 N7         -46.8090    76.2820   102.2610 N.2          1 ATP1001   0.0000
    25 C5         -48.1570    76.2220   102.4260 C.ar         1 ATP1001   0.0000
    26 C6         -49.1620    76.9850   103.0630 C.ar         1 ATP1001   0.0000
    27 N6         -48.9810    78.1080   103.7480 N.pl3        1 ATP1001   0.0000
    28 N1         -50.4830    76.5590   102.9890 N.ar         1 ATP1001   0.0000
    29 C2         -50.8410    75.4130   102.3100 C.ar         1 ATP1001   0.0000
    30 N3         -49.8800    74.6540   101.6790 N.ar         1 ATP1001   0.0000
    31 C4         -48.5680    75.0550   101.7400 C.ar         1 ATP1001   0.0000
    32 H5'1       -43.3140    72.2921   100.6945 H            1 ATP1001   0.0000
    33 H5'2       -44.1902    73.3888   101.5290 H            1 ATP1001   0.0000
    34 H4'        -45.2959    71.1986   100.0235 H            1 ATP1001   0.0000
    35 H3'        -45.0137    73.9426    99.3647 H            1 ATP1001   0.0000
    36 H5         -44.3533    73.1586    97.4783 H            1 ATP1001   0.0000
    37 H2'        -47.1021    74.1394    98.5658 H            1 ATP1001   0.0000
    38 H7         -46.9148    71.6167    97.8391 H            1 ATP1001   0.0000
    39 H1'        -48.3649    72.8276   100.3721 H            1 ATP1001   0.0000
    40 H9         -45.4173    75.0980   101.2895 H            1 ATP1001   0.0000
    41 H10        -49.7637    78.5728   104.1620 H            1 ATP1001   0.0000
    42 H11        -48.0620    78.4889   103.8499 H            1 ATP1001   0.0000
    43 H12        -51.8002    75.1325   102.2757 H            1 ATP1001   0.0000
@<TRIPOS>BOND
     1    1    2      ar
     2    1    3      ar
     3    1    4      ar
     4    1    8       1
     5    5    6      ar
     6    5    7      ar
     7    5    8       1
     8    5   12       1
     9    9   10      ar
    10    9   11      ar
    11    9   12       1
    12    9   13       1
    13   13   14       1
    14   14   15       1
    15   15   16       1
    16   15   17       1
    17   16   21       1
    18   17   18       1
    19   17   19       1
    20   19   20       1
    21   19   21       1
    22   21   22       1
    23   22   23       1
    24   22   31       1
    25   23   24       2
    26   24   25       1
    27   25   26      ar
    28   25   31      ar
    29   26   27       1
    30   26   28      ar
    31   28   29      ar
    32   29   30      ar
    33   30   31      ar
    34   29   43       1
    35   27   42       1
    36   27   41       1
    37   23   40       1
    38   14   32       1
    39   14   33       1
    40   15   34       1
    41   17   35       1
    42   18   36       1
    43   19   37       1
    44   20   38       1
    45   21   39       1
@<TRIPOS>SUBSTRUCTURE
     1 ATP1001     1 GROUP             4 A     ATP     0 **** ATP A1001
