@<TRIPOS>MOLECULE
4do3_0LA_1_ligand
   30    32     1     0     0
SMALL
NO_CHARGES


@<TRIPOS>ATOM
     1 CL          18.2830    47.0400    10.3660 Cl           1 0LA602   0.0000
     2 C3          19.5520    47.1320     9.1240 C.ar         1 0LA602   0.0000
     3 C2          19.3960    46.3180     7.9940 C.ar         1 0LA602   0.0000
     4 C1          20.3420    46.3290     6.9960 C.ar         1 0LA602   0.0000
     5 C9A         21.4260    47.1840     7.1700 C.ar         1 0LA602   0.0000
     6 N9          22.5280    47.4580     6.3820 N.pl3        1 0LA602   0.0000
     7 C4          20.6260    47.9950     9.3240 C.ar         1 0LA602   0.0000
     8 C4A         21.5560    48.0080     8.3010 C.ar         1 0LA602   0.0000
     9 C4B         22.7240    48.7630     8.1910 C.ar         1 0LA602   0.0000
    10 C5          23.2710    49.7150     9.0680 C.ar         1 0LA602   0.0000
    11 C6          24.4780    50.3020     8.6330 C.ar         1 0LA602   0.0000
    12 C8A         23.3430    48.4080     6.9700 C.ar         1 0LA602   0.0000
    13 C8          24.5320    48.9950     6.5660 C.ar         1 0LA602   0.0000
    14 C7          25.1150    49.9540     7.3990 C.ar         1 0LA602   0.0000
    15 C10         26.3930    50.5760     6.8960 C.3          1 0LA602   0.0000
    16 C14         26.9400    51.6560     7.8330 C.3          1 0LA602   0.0000
    17 C11         26.0880    51.2460     5.5610 C.2          1 0LA602   0.0000
    18 O13         26.3700    50.6290     4.4940 O.co2        1 0LA602   0.0000
    19 O12         25.5420    52.3700     5.5520 O.co2        1 0LA602  -1.0000
    20 H1          18.5936    45.7268     7.9131 H            1 0LA602   0.0000
    21 H2          20.2552    45.7508     6.1848 H            1 0LA602   0.0000
    22 H3          22.7123    47.0248     5.4998 H            1 0LA602   0.0000
    23 H4          20.7176    48.5611    10.1433 H            1 0LA602   0.0000
    24 H5          22.8372    49.9582     9.9356 H            1 0LA602   0.0000
    25 H6          24.9085    50.9931     9.2135 H            1 0LA602   0.0000
    26 H7          24.9619    48.7387     5.7002 H            1 0LA602   0.0000
    27 H8          27.0834    49.8646     6.7645 H            1 0LA602   0.0000
    28 H9          27.7843    52.0320     7.4513 H            1 0LA602   0.0000
    29 H10         26.2640    52.3864     7.9304 H            1 0LA602   0.0000
    30 H11         27.1290    51.2551     8.7294 H            1 0LA602   0.0000
@<TRIPOS>BOND
     1    1    2       1
     2    2    3      ar
     3    2    7      ar
     4    3    4      ar
     5    4    5      ar
     6    5    6       1
     7    5    8      ar
     8    6   12       1
     9    7    8      ar
    10    8    9       1
    11    9   10      ar
    12    9   12      ar
    13   10   11      ar
    14   11   14      ar
    15   12   13      ar
    16   13   14      ar
    17   14   15       1
    18   15   16       1
    19   15   17       1
    20   17   18      ar
    21   17   19      ar
    22    3   20       1
    23    4   21       1
    24    6   22       1
    25    7   23       1
    26   10   24       1
    27   11   25       1
    28   13   26       1
    29   15   27       1
    30   16   28       1
    31   16   29       1
    32   16   30       1
@<TRIPOS>SUBSTRUCTURE
     1 0LA602      1 GROUP             4 A     0LA     0 **** 0LA A 602
