@<TRIPOS>MOLECULE
2lba_CHO_1_ligand
   74    77     1     0     0
SMALL
NO_CHARGES


@<TRIPOS>ATOM
     1 C1           6.4130    -0.1840    -0.2930 C.3          1 CHO200   0.0000
     2 C2           5.0080    -0.2250     0.3120 C.3          1 CHO200   0.0000
     3 C3           4.3050     1.1210     0.1220 C.3          1 CHO200   0.0000
     4 O3           3.0160     1.0700     0.7380 O.3          1 CHO200   0.0000
     5 C4           5.1330     2.2250     0.7840 C.3          1 CHO200   0.0000
     6 C5           6.5350     2.2660     0.1710 C.3          1 CHO200   0.0000
     7 C6           7.3350     3.3990     0.8190 C.3          1 CHO200   0.0000
     8 C7           7.5200     3.1090     2.3100 C.3          1 CHO200   0.0000
     9 O7           6.2420     3.0750     2.9520 O.3          1 CHO200   0.0000
    10 C8           8.2200     1.7640     2.5120 C.3          1 CHO200   0.0000
    11 C9           7.4240     0.6380     1.8440 C.3          1 CHO200   0.0000
    12 C10          7.2500     0.9230     0.3510 C.3          1 CHO200   0.0000
    13 C11          8.1090    -0.7140     2.0730 C.3          1 CHO200   0.0000
    14 C12          8.3100    -0.9960     3.5640 C.3          1 CHO200   0.0000
    15 C13          9.1220     0.1450     4.1840 C.3          1 CHO200   0.0000
    16 C14          8.3530     1.4510     4.0030 C.3          1 CHO200   0.0000
    17 C15          9.2520     2.4040     4.7880 C.3          1 CHO200   0.0000
    18 C16          9.5600     1.5960     6.0530 C.3          1 CHO200   0.0000
    19 C17          9.1780     0.1510     5.7130 C.3          1 CHO200   0.0000
    20 C18         10.5180     0.2530     3.5690 C.3          1 CHO200   0.0000
    21 C19          8.6230     0.9830    -0.3240 C.3          1 CHO200   0.0000
    22 C20         10.1700    -0.8630     6.2880 C.3          1 CHO200   0.0000
    23 C21          9.7950    -2.2840     5.8640 C.3          1 CHO200   0.0000
    24 C22         10.2030    -0.7560     7.8140 C.3          1 CHO200   0.0000
    25 C23         11.2060    -1.7460     8.4070 C.3          1 CHO200   0.0000
    26 C24         11.2410    -1.6430     9.9340 C.2          1 CHO200   0.0000
    27 O24         10.9550    -0.5920    10.5040 O.2          1 CHO200   0.0000
    28 N25         11.6000    -2.7610    10.5600 N.am         1 CHO200   0.0000
    29 C26         11.6860    -2.8430    12.0250 C.3          1 CHO200   0.0000
    30 C27         12.5980    -1.7340    12.5510 C.2          1 CHO200   0.0000
    31 OT1         12.1370    -0.9970    13.4480 O.co2        1 CHO200   0.0000
    32 OT2         13.7450    -1.6500    12.0590 O.co2        1 CHO200  -1.0000
    33 H1           6.3419    -0.0118    -1.2755 H            1 CHO200   0.0000
    34 H2           6.8614    -1.0647    -0.1406 H            1 CHO200   0.0000
    35 H3           5.0759    -0.4261     1.2892 H            1 CHO200   0.0000
    36 H4           4.4758    -0.9412    -0.1395 H            1 CHO200   0.0000
    37 H5           4.2048     1.3141    -0.8540 H            1 CHO200   0.0000
    38 H6           2.5533     1.9481     0.6160 H            1 CHO200   0.0000
    39 H7           5.2054     2.0421     1.7645 H            1 CHO200   0.0000
    40 H8           4.6833     3.1068     0.6417 H            1 CHO200   0.0000
    41 H9           6.4503     2.4540    -0.8075 H            1 CHO200   0.0000
    42 H10          6.8416     4.2615     0.7064 H            1 CHO200   0.0000
    43 H11          8.2307     3.4676     0.3796 H            1 CHO200   0.0000
    44 H12          8.0747     3.8333     2.7196 H            1 CHO200   0.0000
    45 H13          6.2074     3.7772     3.6631 H            1 CHO200   0.0000
    46 H14          9.1321     1.8058     2.1042 H            1 CHO200   0.0000
    47 H15          6.5170     0.6043     2.2639 H            1 CHO200   0.0000
    48 H16          9.0008    -0.7072     1.6205 H            1 CHO200   0.0000
    49 H17          7.5410    -1.4368     1.6793 H            1 CHO200   0.0000
    50 H18          8.8029    -1.8585     3.6783 H            1 CHO200   0.0000
    51 H19          7.4202    -1.0581     4.0161 H            1 CHO200   0.0000
    52 H20          7.4509     1.3886     4.4299 H            1 CHO200   0.0000
    53 H21          8.7734     3.2538     5.0088 H            1 CHO200   0.0000
    54 H22         10.0875     2.6142     4.2803 H            1 CHO200   0.0000
    55 H23          9.0164     1.9301     6.8230 H            1 CHO200   0.0000
    56 H24         10.5320     1.6572     6.2797 H            1 CHO200   0.0000
    57 H25          8.2659    -0.0409     6.0753 H            1 CHO200   0.0000
    58 H26         11.0144     1.0070     3.9992 H            1 CHO200   0.0000
    59 H27         11.0151    -0.6017     3.7185 H            1 CHO200   0.0000
    60 H28         10.4373     0.4243     2.5871 H            1 CHO200   0.0000
    61 H29          9.1701     1.7066     0.0969 H            1 CHO200   0.0000
    62 H30          9.0884     0.1051    -0.2116 H            1 CHO200   0.0000
    63 H31          8.5073     1.1766    -1.2982 H            1 CHO200   0.0000
    64 H32         11.0815    -0.6542     5.9336 H            1 CHO200   0.0000
    65 H33         10.4532    -2.9312     6.2485 H            1 CHO200   0.0000
    66 H34          8.8786    -2.5013     6.2002 H            1 CHO200   0.0000
    67 H35          9.8080    -2.3485     4.8662 H            1 CHO200   0.0000
    68 H36          9.2925    -0.9554     8.1763 H            1 CHO200   0.0000
    69 H37         10.4682     0.1731     8.0717 H            1 CHO200   0.0000
    70 H38         12.1163    -1.5458     8.0448 H            1 CHO200   0.0000
    71 H39         10.9410    -2.6748     8.1479 H            1 CHO200   0.0000
    72 H40         11.8183    -3.5714    10.0163 H            1 CHO200   0.0000
    73 H41         12.0598    -3.7328    12.2867 H            1 CHO200   0.0000
    74 H42         10.7726    -2.7365    12.4180 H            1 CHO200   0.0000
@<TRIPOS>BOND
     1    1    2       1
     2    1   12       1
     3    2    3       1
     4    3    4       1
     5    3    5       1
     6    5    6       1
     7    6    7       1
     8    6   12       1
     9    7    8       1
    10    8    9       1
    11    8   10       1
    12   10   11       1
    13   10   16       1
    14   11   12       1
    15   11   13       1
    16   12   21       1
    17   13   14       1
    18   14   15       1
    19   15   16       1
    20   15   19       1
    21   15   20       1
    22   16   17       1
    23   17   18       1
    24   18   19       1
    25   19   22       1
    26   22   23       1
    27   22   24       1
    28   24   25       1
    29   25   26       1
    30   26   27       2
    31   26   28      am
    32   28   29       1
    33   29   30       1
    34   30   31      ar
    35   30   32      ar
    36    1   33       1
    37    1   34       1
    38    2   35       1
    39    2   36       1
    40    3   37       1
    41    4   38       1
    42    5   39       1
    43    5   40       1
    44    6   41       1
    45    7   42       1
    46    7   43       1
    47    8   44       1
    48    9   45       1
    49   10   46       1
    50   11   47       1
    51   13   48       1
    52   13   49       1
    53   14   50       1
    54   14   51       1
    55   16   52       1
    56   17   53       1
    57   17   54       1
    58   18   55       1
    59   18   56       1
    60   19   57       1
    61   20   58       1
    62   20   59       1
    63   20   60       1
    64   21   61       1
    65   21   62       1
    66   21   63       1
    67   22   64       1
    68   23   65       1
    69   23   66       1
    70   23   67       1
    71   24   68       1
    72   24   69       1
    73   25   70       1
    74   25   71       1
    75   28   72       1
    76   29   73       1
    77   29   74       1
@<TRIPOS>SUBSTRUCTURE
     1 CHO200      1 GROUP             4 A     CHO     0 **** CHO A 200
