@<TRIPOS>MOLECULE
2y6d_TQJ_1_ligand
   55    57     1     0     0
SMALL
NO_CHARGES


@<TRIPOS>ATOM
     1 N1         -16.3490    11.4020     3.3780 N.3          1 TQJ1271   0.0000
     2 S2         -15.1580    10.2200     3.0470 S.o2         1 TQJ1271   0.0000
     3 C3         -16.0830    12.6650     2.6540 C.3          1 TQJ1271   0.0000
     4 C4         -16.5510    11.5680     4.8350 C.3          1 TQJ1271   0.0000
     5 C5         -15.8270     9.4470     1.5950 C.3          1 TQJ1271   0.0000
     6 O6         -13.9400    10.9070     2.6590 O.2          1 TQJ1271   0.0000
     7 O7         -15.1610     9.2450     4.1210 O.2          1 TQJ1271   0.0000
     8 C8         -17.0530    13.7470     3.0530 C.3          1 TQJ1271   0.0000
     9 C9         -17.4870    12.7060     5.1480 C.3          1 TQJ1271   0.0000
    10 C10        -16.8490     8.3960     1.9620 C.3          1 TQJ1271   0.0000
    11 N11        -16.9440    13.8580     4.4820 N.pl3        1 TQJ1271   0.0000
    12 C12        -17.1520     7.5540     0.7420 C.3          1 TQJ1271   0.0000
    13 N13        -18.0380     9.0550     2.4290 N.am         1 TQJ1271   0.0000
    14 C14        -17.5560    15.0270     4.9380 C.ar         1 TQJ1271   0.0000
    15 C15        -17.7280     6.2100     1.1270 C.3          1 TQJ1271   0.0000
    16 C16        -18.7830     8.5270     3.4470 C.2          1 TQJ1271   0.0000
    17 O17        -18.8670     9.3900     1.3410 O.3          1 TQJ1271  -1.0000
    18 C18        -18.1100    15.8730     4.0040 C.ar         1 TQJ1271   0.0000
    19 N19        -17.5690    15.2750     6.2500 N.ar         1 TQJ1271   0.0000
    20 C20        -18.3340     5.5570    -0.0930 C.3          1 TQJ1271   0.0000
    21 O21        -19.7410     9.0540     3.9920 O.2          1 TQJ1271   0.0000
    22 C22        -18.7160    17.0370     4.4130 C.ar         1 TQJ1271   0.0000
    23 C23        -18.1600    16.4090     6.6260 C.ar         1 TQJ1271   0.0000
    24 C24        -18.8260     4.1890     0.2350 C.ar         1 TQJ1271   0.0000
    25 C25        -18.7360    17.3030     5.7590 C.ar         1 TQJ1271   0.0000
    26 N26        -20.1350     4.0690     0.4750 N.ar         1 TQJ1271   0.0000
    27 N27        -17.9120     3.2150     0.2540 N.ar         1 TQJ1271   0.0000
    28 BR28       -19.5440    18.8790     6.4210 Br           1 TQJ1271   0.0000
    29 C29        -20.5470     2.8330     0.7640 C.ar         1 TQJ1271   0.0000
    30 C30        -18.3850     2.0030     0.5470 C.ar         1 TQJ1271   0.0000
    31 C31        -19.7070     1.7500     0.8150 C.ar         1 TQJ1271   0.0000
    32 H1         -16.1671    12.4998     1.6713 H            1 TQJ1271   0.0000
    33 H2         -15.1535    12.9692     2.8625 H            1 TQJ1271   0.0000
    34 H3         -15.6667    11.7495     5.2651 H            1 TQJ1271   0.0000
    35 H4         -16.9349    10.7226     5.2063 H            1 TQJ1271   0.0000
    36 H5         -15.0843     9.0159     1.0826 H            1 TQJ1271   0.0000
    37 H6         -16.2642    10.1434     1.0259 H            1 TQJ1271   0.0000
    38 H7         -17.9847    13.4935     2.7929 H            1 TQJ1271   0.0000
    39 H8         -16.8088    14.6128     2.6162 H            1 TQJ1271   0.0000
    40 H9         -17.5272    12.8617     6.1350 H            1 TQJ1271   0.0000
    41 H10        -18.4046    12.5061     4.8044 H            1 TQJ1271   0.0000
    42 H11        -16.4831     7.8132     2.6876 H            1 TQJ1271   0.0000
    43 H12        -16.3064     7.4102     0.2280 H            1 TQJ1271   0.0000
    44 H13        -17.8124     8.0385     0.1684 H            1 TQJ1271   0.0000
    45 H14        -18.4344     6.3367     1.8234 H            1 TQJ1271   0.0000
    46 H15        -17.0014     5.6274     1.4913 H            1 TQJ1271   0.0000
    47 H16        -18.5178     7.6212     3.7775 H            1 TQJ1271   0.0000
    48 H17        -18.0717    15.6417     3.0319 H            1 TQJ1271   0.0000
    49 H18        -17.6405     5.4937    -0.8107 H            1 TQJ1271   0.0000
    50 H19        -19.0995     6.1127    -0.4173 H            1 TQJ1271   0.0000
    51 H20        -19.1271    17.6667     3.7539 H            1 TQJ1271   0.0000
    52 H21        -18.1852    16.6219     7.6027 H            1 TQJ1271   0.0000
    53 H22        -21.5183     2.6890     0.9531 H            1 TQJ1271   0.0000
    54 H23        -17.7420     1.2376     0.5728 H            1 TQJ1271   0.0000
    55 H24        -20.0376     0.8320     1.0341 H            1 TQJ1271   0.0000
@<TRIPOS>BOND
     1    1    2       1
     2    1    3       1
     3    1    4       1
     4    2    5       1
     5    2    6       2
     6    2    7       2
     7    3    8       1
     8    4    9       1
     9    5   10       1
    10    8   11       1
    11    9   11       1
    12   10   12       1
    13   10   13       1
    14   11   14       1
    15   12   15       1
    16   13   16      am
    17   13   17       1
    18   14   18      ar
    19   14   19      ar
    20   15   20       1
    21   16   21       2
    22   18   22      ar
    23   19   23      ar
    24   20   24       1
    25   22   25      ar
    26   23   25      ar
    27   24   26      ar
    28   24   27      ar
    29   25   28       1
    30   26   29      ar
    31   27   30      ar
    32   29   31      ar
    33   30   31      ar
    34    3   32       1
    35    3   33       1
    36    4   34       1
    37    4   35       1
    38    5   36       1
    39    5   37       1
    40    8   38       1
    41    8   39       1
    42    9   40       1
    43    9   41       1
    44   10   42       1
    45   12   43       1
    46   12   44       1
    47   15   45       1
    48   15   46       1
    49   16   47       1
    50   31   55       1
    51   18   48       1
    52   20   49       1
    53   20   50       1
    54   22   51       1
    55   23   52       1
    56   29   53       1
    57   30   54       1
@<TRIPOS>SUBSTRUCTURE
     1 TQJ1271     1 GROUP             4 A     TQJ     0 **** TQJ A1271
