@<TRIPOS>MOLECULE
3n1a_CHQ_1_ligand
   31    33     1     0     0
SMALL
NO_CHARGES


@<TRIPOS>ATOM
     1 N           -4.5860    -7.5820    -5.7090 N.am         1 CHQ1514   0.0000
     2 CA          -3.5720    -6.8220    -6.4560 C.3          1 CHQ1514   0.0000
     3 C           -2.9270    -5.7850    -5.5220 C.2          1 CHQ1514   0.0000
     4 O           -2.5040    -4.7300    -5.9890 O.2          1 CHQ1514   0.0000
     5 CB          -4.2580    -6.1700    -7.6770 C.3          1 CHQ1514   0.0000
     6 ND1         -4.0400    -3.8610    -8.7400 N.pl3        1 CHQ1514   0.0000
     7 CE1         -3.0780    -3.0980    -9.2540 C.2          1 CHQ1514   0.0000
     8 NE2         -1.9340    -3.7690    -9.1680 N.2          1 CHQ1514   0.0000
     9 CD2         -2.1920    -4.9460    -8.6020 C.2          1 CHQ1514   0.0000
    10 CG          -3.4940    -5.0040    -8.3310 C.2          1 CHQ1514   0.0000
    11 NP          -2.7890    -6.0360    -4.1460 N.am         1 CHQ1514   0.0000
    12 CAP         -3.2640    -7.2880    -3.5470 C.3          1 CHQ1514   0.0000
    13 CP          -4.4630    -7.8110    -4.3320 C.2          1 CHQ1514   0.0000
    14 OP          -5.3330    -8.4470    -3.7410 O.2          1 CHQ1514   0.0000
    15 CBP         -3.7240    -6.9000    -2.1330 C.3          1 CHQ1514   0.0000
    16 CGP         -3.1210    -5.5190    -1.8550 C.3          1 CHQ1514   0.0000
    17 CDP         -2.2090    -5.2400    -3.0490 C.3          1 CHQ1514   0.0000
    18 H1          -5.3816    -7.9436    -6.1951 H            1 CHQ1514   0.0000
    19 HA          -2.8658    -7.4524    -6.7784 H            1 CHQ1514   0.0000
    20 HB1         -5.1488    -5.8254    -7.3808 H            1 CHQ1514   0.0000
    21 HB2         -4.3885    -6.8787    -8.3704 H            1 CHQ1514   0.0000
    22 HE1         -3.1953    -2.1818    -9.6372 H            1 CHQ1514   0.0000
    23 HD2         -1.5221    -5.6639    -8.4127 H            1 CHQ1514   0.0000
    24 HAP         -2.5328    -7.9693    -3.5123 H            1 CHQ1514   0.0000
    25 HBP1        -3.3909    -7.5652    -1.4648 H            1 CHQ1514   0.0000
    26 HBP2        -4.7223    -6.8576    -2.0920 H            1 CHQ1514   0.0000
    27 HGP1        -2.5943    -5.5298    -1.0050 H            1 CHQ1514   0.0000
    28 HGP2        -3.8404    -4.8272    -1.7926 H            1 CHQ1514   0.0000
    29 HDP1        -2.2129    -4.2665    -3.2776 H            1 CHQ1514   0.0000
    30 HDP2        -1.2727    -5.5332    -2.8555 H            1 CHQ1514   0.0000
    31 HD1         -5.0075    -3.6172    -8.6726 H            1 CHQ1514   0.0000
@<TRIPOS>BOND
     1    1    2       1
     2    1   13      am
     3    2    3       1
     4    2    5       1
     5    3    4       2
     6    3   11      am
     7    5   10       1
     8    6    7       1
     9    6   10       1
    10    7    8       2
    11    8    9       1
    12    9   10       2
    13   11   12       1
    14   11   17       1
    15   12   13       1
    16   12   15       1
    17   13   14       2
    18   15   16       1
    19   16   17       1
    20    1   18       1
    21    2   19       1
    22    5   20       1
    23    5   21       1
    24   17   30       1
    25    7   22       1
    26    9   23       1
    27   12   24       1
    28   15   25       1
    29   15   26       1
    30   16   27       1
    31   16   28       1
    32   17   29       1
    33    6   31       1
@<TRIPOS>SUBSTRUCTURE
     1 CHQ1514     1 GROUP             4 A     CHQ     0 **** CHQ A1514
