@<TRIPOS>MOLECULE
4bmz_MTA_1_ligand
   35    37     1     0     0
SMALL
NO_CHARGES


@<TRIPOS>ATOM
     1 CS         -42.7590     0.1900   -20.7550 C.3          1 MTA1232   0.0000
     2 S5'        -41.7250     1.6220   -20.4020 S.3          1 MTA1232   0.0000
     3 C5'        -42.3780     2.9460   -21.3950 C.3          1 MTA1232   0.0000
     4 C4'        -42.0330     2.9310   -22.8780 C.3          1 MTA1232   0.0000
     5 O4'        -42.8740     3.8250   -23.6660 O.3          1 MTA1232   0.0000
     6 C2'        -40.9190     5.0070   -23.2240 C.3          1 MTA1232   0.0000
     7 O2'        -40.0660     5.6730   -24.1240 O.3          1 MTA1232   0.0000
     8 C3'        -40.6110     3.4810   -23.1360 C.3          1 MTA1232   0.0000
     9 O3'        -40.0600     2.9510   -24.3470 O.3          1 MTA1232   0.0000
    10 C1'        -42.3670     5.1910   -23.7000 C.3          1 MTA1232   0.0000
    11 N9         -43.2700     5.9500   -22.7080 N.pl3        1 MTA1232   0.0000
    12 C8         -44.6140     6.0950   -22.8740 C.2          1 MTA1232   0.0000
    13 N7         -45.1860     6.7600   -21.8160 N.2          1 MTA1232   0.0000
    14 C5         -44.2040     7.0660   -20.9410 C.ar         1 MTA1232   0.0000
    15 C6         -44.1350     7.7060   -19.5990 C.ar         1 MTA1232   0.0000
    16 N6         -45.2790     8.2170   -19.0020 N.pl3        1 MTA1232   0.0000
    17 N1         -42.9140     7.8280   -18.9840 N.ar         1 MTA1232   0.0000
    18 C2         -41.8120     7.3030   -19.5330 C.ar         1 MTA1232   0.0000
    19 N3         -41.8200     6.6620   -20.7420 N.ar         1 MTA1232   0.0000
    20 C4         -42.9450     6.5200   -21.5190 C.ar         1 MTA1232   0.0000
    21 HS1        -42.4381    -0.5925   -20.2214 H            1 MTA1232   0.0000
    22 HS2        -43.7066     0.3945   -20.5098 H            1 MTA1232   0.0000
    23 HS3        -42.7063    -0.0270   -21.7297 H            1 MTA1232   0.0000
    24 H5'1       -42.0368     3.8055   -21.0143 H            1 MTA1232   0.0000
    25 H5'2       -43.3746     2.9190   -21.3166 H            1 MTA1232   0.0000
    26 H4'        -42.1048     1.9988   -23.2327 H            1 MTA1232   0.0000
    27 H2'        -40.8188     5.4140   -22.3161 H            1 MTA1232   0.0000
    28 H8         -39.4284     5.0164   -24.5269 H            1 MTA1232   0.0000
    29 H3'        -40.0109     3.2861   -22.3602 H            1 MTA1232   0.0000
    30 H10        -39.0649     2.8962   -24.2645 H            1 MTA1232   0.0000
    31 H1'        -42.4108     5.5825   -24.6191 H            1 MTA1232   0.0000
    32 H12        -45.1217     5.7592   -23.6674 H            1 MTA1232   0.0000
    33 H13        -45.2236     8.6454   -18.1001 H            1 MTA1232   0.0000
    34 H14        -46.1587     8.1568   -19.4738 H            1 MTA1232   0.0000
    35 H15        -40.9463     7.3825   -19.0388 H            1 MTA1232   0.0000
@<TRIPOS>BOND
     1    1    2       1
     2    2    3       1
     3    3    4       1
     4    4    5       1
     5    4    8       1
     6    5   10       1
     7    6    7       1
     8    6    8       1
     9    6   10       1
    10    8    9       1
    11   10   11       1
    12   11   12       1
    13   11   20       1
    14   12   13       2
    15   13   14       1
    16   14   15      ar
    17   14   20      ar
    18   15   16       1
    19   15   17      ar
    20   17   18      ar
    21   18   19      ar
    22   19   20      ar
    23    1   21       1
    24    1   22       1
    25    1   23       1
    26    3   24       1
    27    3   25       1
    28    4   26       1
    29    6   27       1
    30    7   28       1
    31    8   29       1
    32    9   30       1
    33   10   31       1
    34   12   32       1
    35   16   33       1
    36   16   34       1
    37   18   35       1
@<TRIPOS>SUBSTRUCTURE
     1 MTA1232     1 GROUP             4 A     MTA     0 **** MTA A1232
