@<TRIPOS>MOLECULE
3eei_MTM_1_ligand
   38    40     1     0     0
SMALL
NO_CHARGES


@<TRIPOS>ATOM
     1 CS         -36.6710     9.6960   -17.4290 C.3          1 MTM234   0.0000
     2 S5'        -36.4030     8.1030   -16.6790 S.3          1 MTM234   0.0000
     3 C5'        -34.6780     7.7790   -16.8940 C.3          1 MTM234   0.0000
     4 C4'        -34.2360     7.4270   -18.3120 C.3          1 MTM234   0.0000
     5 N4'        -32.7850     7.5470   -18.3760 N.4          1 MTM234   1.0000
     6 C2'        -33.2380     5.2700   -17.7130 C.3          1 MTM234   0.0000
     7 O2'        -32.7900     4.1040   -18.4270 O.3          1 MTM234   0.0000
     8 C3'        -34.4680     5.8960   -18.3980 C.3          1 MTM234   0.0000
     9 O3'        -34.5980     5.4820   -19.7730 O.3          1 MTM234   0.0000
    10 C1'        -32.1720     6.3710   -17.7380 C.3          1 MTM234   0.0000
    11 C9         -31.4950     6.5800   -16.3570 C.2          1 MTM234   0.0000
    12 C8         -30.6210     7.7850   -16.0640 C.2          1 MTM234   0.0000
    13 N7         -30.4590     7.9180   -14.6930 N.pl3        1 MTM234   0.0000
    14 C5         -31.2280     6.9760   -14.0430 C.ar         1 MTM234   0.0000
    15 C6         -31.4990     6.6500   -12.6440 C.ar         1 MTM234   0.0000
    16 N6         -30.8890     7.3440   -11.6580 N.pl3        1 MTM234   0.0000
    17 N1         -32.3320     5.6050   -12.3350 N.ar         1 MTM234   0.0000
    18 C2         -32.9080     4.9150   -13.3450 C.ar         1 MTM234   0.0000
    19 N3         -32.7230     5.1360   -14.6490 N.ar         1 MTM234   0.0000
    20 C4         -31.9390     6.1840   -15.0510 C.ar         1 MTM234   0.0000
    21 HS1        -37.6354     9.9464   -17.3440 H            1 MTM234   0.0000
    22 HS2        -36.1069    10.3808   -16.9677 H            1 MTM234   0.0000
    23 HS3        -36.4212     9.6552   -18.3964 H            1 MTM234   0.0000
    24 H5'1       -34.4337     7.0138   -16.2983 H            1 MTM234   0.0000
    25 H5'2       -34.1754     8.5958   -16.6106 H            1 MTM234   0.0000
    26 H4'        -34.7132     7.9456   -19.0214 H            1 MTM234   0.0000
    27 H4'1       -32.4967     8.3757   -17.8963 H            1 MTM234   0.0000
    28 H2'        -33.4585     5.0287   -16.7679 H            1 MTM234   0.0000
    29 H9         -33.5704     3.6662   -18.8734 H            1 MTM234   0.0000
    30 H3'        -35.2957     5.6517   -17.8929 H            1 MTM234   0.0000
    31 H11        -35.1967     4.6827   -19.8253 H            1 MTM234   0.0000
    32 H1'        -31.4546     6.0550   -18.3589 H            1 MTM234   0.0000
    33 H13        -30.2229     8.3903   -16.7534 H            1 MTM234   0.0000
    34 H14        -29.8740     8.5937   -14.2445 H            1 MTM234   0.0000
    35 H15        -31.0745     7.1209   -10.7010 H            1 MTM234   0.0000
    36 H16        -30.2521     8.0807   -11.8853 H            1 MTM234   0.0000
    37 H17        -33.5284     4.1723   -13.0929 H            1 MTM234   0.0000
    38 H4'2       -32.4957     7.5974   -19.3319 H            1 MTM234   0.0000
@<TRIPOS>BOND
     1    1    2       1
     2    2    3       1
     3    3    4       1
     4    4    5       1
     5    4    8       1
     6    5   10       1
     7    6    7       1
     8    6    8       1
     9    6   10       1
    10    8    9       1
    11   10   11       1
    12   11   12       2
    13   11   20       1
    14   12   13       1
    15   13   14       1
    16   14   15      ar
    17   14   20      ar
    18   15   16       1
    19   15   17      ar
    20   17   18      ar
    21   18   19      ar
    22   19   20      ar
    23    1   21       1
    24    1   22       1
    25    1   23       1
    26    3   24       1
    27    3   25       1
    28    4   26       1
    29    5   27       1
    30    6   28       1
    31    7   29       1
    32    8   30       1
    33    9   31       1
    34   10   32       1
    35   12   33       1
    36   13   34       1
    37   16   35       1
    38   16   36       1
    39   18   37       1
    40    5   38       1
@<TRIPOS>SUBSTRUCTURE
     1 MTM234      1 GROUP             4 A     MTM     0 **** MTM A 234
