@<TRIPOS>MOLECULE
4h97_53S_2_ligand
   53    55     1     0     0
SMALL
NO_CHARGES


@<TRIPOS>ATOM
     1 C6         -12.2650    40.9830   -19.4490 C.ar         1 53S202   0.0000
     2 C5         -12.2680    40.8610   -20.8380 C.ar         1 53S202   0.0000
     3 C2          -4.0100    41.7470   -17.9770 C.3          1 53S202   0.0000
     4 C20         -8.5860    45.5000   -21.6910 C.ar         1 53S202   0.0000
     5 C21         -8.8820    46.5050   -22.6140 C.ar         1 53S202   0.0000
     6 C22         -8.1770    47.7110   -22.5880 C.ar         1 53S202   0.0000
     7 C26         -8.4970    48.8110   -23.6000 C.3          1 53S202   0.0000
     8 C23         -7.1780    47.9140   -21.6380 C.ar         1 53S202   0.0000
     9 C24         -6.8870    46.9100   -20.7170 C.ar         1 53S202   0.0000
    10 C25         -7.5860    45.6970   -20.7350 C.ar         1 53S202   0.0000
    11 C18         -7.2730    44.7070   -19.7990 C.ar         1 53S202   0.0000
    12 C19         -8.2790    44.0460   -19.0810 C.ar         1 53S202   0.0000
    13 C17         -5.9330    44.3760   -19.5680 C.ar         1 53S202   0.0000
    14 C16         -5.5900    43.3960   -18.6370 C.ar         1 53S202   0.0000
    15 O17         -4.2720    43.0950   -18.4260 O.3          1 53S202   0.0000
    16 C15         -6.6010    42.7460   -17.9290 C.ar         1 53S202   0.0000
    17 C14         -7.9410    43.0560   -18.1490 C.ar         1 53S202   0.0000
    18 C12         -8.9850    42.2890   -17.3120 C.3          1 53S202   0.0000
    19 C13         -9.4980    43.2050   -16.1990 C.3          1 53S202   0.0000
    20 C11        -10.1490    41.8250   -18.0860 C.1          1 53S202   0.0000
    21 C10        -11.1160    41.4390   -18.7210 C.1          1 53S202   0.0000
    22 C8         -11.0340    41.2110   -21.6810 C.3          1 53S202   0.0000
    23 N4         -13.3820    40.4290   -21.4550 N.ar         1 53S202   1.0000
    24 C3         -14.4880    40.1120   -20.7580 C.ar         1 53S202   0.0000
    25 N7         -15.5740    39.6840   -21.3940 N.pl3        1 53S202   0.0000
    26 N2         -14.5060    40.2230   -19.4190 N.ar         1 53S202   0.0000
    27 C1         -13.4230    40.6470   -18.7490 C.ar         1 53S202   0.0000
    28 N9         -13.4740    40.7450   -17.4240 N.pl3        1 53S202   0.0000
    29 H1          -3.0257    41.6229   -17.8513 H            1 53S202   0.0000
    30 H2          -4.4797    41.5877   -17.1087 H            1 53S202   0.0000
    31 H3          -4.3432    41.0974   -18.6603 H            1 53S202   0.0000
    32 H4          -9.0909    44.6371   -21.7141 H            1 53S202   0.0000
    33 H5          -9.6000    46.3613   -23.2950 H            1 53S202   0.0000
    34 H6          -7.9014    49.5975   -23.4369 H            1 53S202   0.0000
    35 H7          -8.3469    48.4656   -24.5264 H            1 53S202   0.0000
    36 H8          -9.4521    49.0895   -23.4988 H            1 53S202   0.0000
    37 H9          -6.6722    48.7764   -21.6174 H            1 53S202   0.0000
    38 H10         -6.1705    47.0574   -20.0351 H            1 53S202   0.0000
    39 H11         -9.2388    44.2812   -19.2341 H            1 53S202   0.0000
    40 H12         -5.2128    44.8479   -20.0766 H            1 53S202   0.0000
    41 H13         -6.3605    42.0481   -17.2544 H            1 53S202   0.0000
    42 H14         -8.5410    41.4960   -16.8949 H            1 53S202   0.0000
    43 H15        -10.1761    42.7157   -15.6506 H            1 53S202   0.0000
    44 H16         -8.7340    43.4811   -15.6158 H            1 53S202   0.0000
    45 H17         -9.9192    44.0169   -16.6031 H            1 53S202   0.0000
    46 H18        -11.2365    41.0573   -22.6481 H            1 53S202   0.0000
    47 H19        -10.7949    42.1716   -21.5391 H            1 53S202   0.0000
    48 H20        -10.2667    40.6322   -21.4050 H            1 53S202   0.0000
    49 H21        -16.3964    39.4483   -20.8762 H            1 53S202   0.0000
    50 H22        -15.5686    39.5978   -22.3903 H            1 53S202   0.0000
    51 H23        -14.3120    40.5002   -16.9364 H            1 53S202   0.0000
    52 H24        -12.6743    41.0635   -16.9150 H            1 53S202   0.0000
    53 H25        -13.3883    40.3417   -22.4512 H            1 53S202   0.0000
@<TRIPOS>BOND
     1    1    2      ar
     2    1   21       1
     3    1   27      ar
     4    2   22       1
     5    2   23      ar
     6    3   15       1
     7    4    5      ar
     8    4   10      ar
     9    5    6      ar
    10    6    7       1
    11    6    8      ar
    12    8    9      ar
    13    9   10      ar
    14   10   11       1
    15   11   12      ar
    16   11   13      ar
    17   12   17      ar
    18   13   14      ar
    19   14   15       1
    20   14   16      ar
    21   16   17      ar
    22   17   18       1
    23   18   19       1
    24   18   20       1
    25   20   21       3
    26   23   24      ar
    27   24   25       1
    28   24   26      ar
    29   26   27      ar
    30   27   28       1
    31    3   29       1
    32    3   30       1
    33    3   31       1
    34    4   32       1
    35    5   33       1
    36    7   34       1
    37    7   35       1
    38    7   36       1
    39    8   37       1
    40    9   38       1
    41   12   39       1
    42   13   40       1
    43   16   41       1
    44   18   42       1
    45   19   43       1
    46   19   44       1
    47   19   45       1
    48   22   46       1
    49   22   47       1
    50   22   48       1
    51   25   49       1
    52   25   50       1
    53   28   51       1
    54   28   52       1
    55   23   53       1
@<TRIPOS>SUBSTRUCTURE
     1 53S202      1 GROUP             4 B     53S     0 **** 53S B 202
