@<TRIPOS>MOLECULE
1lpc_CMP_1_ligand
   34    37     1     0     0
SMALL
NO_CHARGES


@<TRIPOS>ATOM
     1 P           72.3280   -13.7040    -2.7210 P.3          1 CMP901   0.0000
     2 O1P         72.5110   -14.9710    -1.8840 O.3          1 CMP901   0.0000
     3 O2P         72.7770   -12.4650    -1.9370 O.2          1 CMP901   0.0000
     4 O5'         73.1950   -13.8320    -4.1270 O.3          1 CMP901   0.0000
     5 C5'         72.6210   -14.2090    -5.4270 C.3          1 CMP901   0.0000
     6 C4'         71.1680   -13.7020    -5.5530 C.3          1 CMP901   0.0000
     7 O4'         70.4370   -14.1560    -6.7010 O.3          1 CMP901   0.0000
     8 C3'         70.3490   -14.2140    -4.3620 C.3          1 CMP901   0.0000
     9 O3'         70.7570   -13.5560    -3.1380 O.3          1 CMP901   0.0000
    10 C2'         68.9220   -13.9710    -4.8120 C.3          1 CMP901   0.0000
    11 O2'         68.4640   -12.7240    -4.3030 O.3          1 CMP901   0.0000
    12 C1'         69.0400   -13.9780    -6.3660 C.3          1 CMP901   0.0000
    13 N9          68.2580   -15.1070    -6.9290 N.pl3        1 CMP901   0.0000
    14 C8          68.6550   -16.3720    -7.3430 C.2          1 CMP901   0.0000
    15 N7          67.7540   -17.2980    -7.8270 N.2          1 CMP901   0.0000
    16 C5          66.6130   -16.5130    -7.7060 C.ar         1 CMP901   0.0000
    17 C6          65.2310   -16.8100    -8.0160 C.ar         1 CMP901   0.0000
    18 N6          64.8530   -17.9850    -8.4990 N.pl3        1 CMP901   0.0000
    19 N1          64.2890   -15.9000    -7.8210 N.ar         1 CMP901   0.0000
    20 C2          64.6040   -14.7110    -7.3370 C.ar         1 CMP901   0.0000
    21 N3          65.7820   -14.2530    -6.9920 N.ar         1 CMP901   0.0000
    22 C4          66.8990   -15.1850    -7.1700 C.ar         1 CMP901   0.0000
    23 H1P         73.4238   -15.3470    -2.0436 H            1 CMP901   0.0000
    24 H5'1        72.6291   -15.2053    -5.5123 H            1 CMP901   0.0000
    25 H5'2        73.1729   -13.8074    -6.1578 H            1 CMP901   0.0000
    26 H4'         71.1695   -12.7021    -5.5419 H            1 CMP901   0.0000
    27 H3'         70.4960   -15.1985    -4.2660 H            1 CMP901   0.0000
    28 H2'         68.3274   -14.7136    -4.5036 H            1 CMP901   0.0000
    29 H7          69.0491   -11.9890    -4.6456 H            1 CMP901   0.0000
    30 H1'         68.7067   -13.1118    -6.7383 H            1 CMP901   0.0000
    31 H9          69.6225   -16.6189    -7.2886 H            1 CMP901   0.0000
    32 H10         63.8887   -18.1554    -8.7019 H            1 CMP901   0.0000
    33 H11         65.5321   -18.7011    -8.6605 H            1 CMP901   0.0000
    34 H12         63.8408   -14.0759    -7.2182 H            1 CMP901   0.0000
@<TRIPOS>BOND
     1    1    2       1
     2    1    3       2
     3    1    4       1
     4    1    9       1
     5    4    5       1
     6    5    6       1
     7    6    7       1
     8    6    8       1
     9    7   12       1
    10    8    9       1
    11    8   10       1
    12   10   11       1
    13   10   12       1
    14   12   13       1
    15   13   14       1
    16   13   22       1
    17   14   15       2
    18   15   16       1
    19   16   17      ar
    20   16   22      ar
    21   17   18       1
    22   17   19      ar
    23   19   20      ar
    24   20   21      ar
    25   21   22      ar
    26    2   23       1
    27    5   24       1
    28    5   25       1
    29    6   26       1
    30    8   27       1
    31   10   28       1
    32   11   29       1
    33   12   30       1
    34   14   31       1
    35   18   32       1
    36   18   33       1
    37   20   34       1
@<TRIPOS>SUBSTRUCTURE
     1 CMP901      1 GROUP             4 A     CMP     0 **** CMP A 901
