@<TRIPOS>MOLECULE
3eey_SAM_1_ligand
   50    52     1     0     0
SMALL
NO_CHARGES


@<TRIPOS>ATOM
     1 N            3.5270    -6.8040   -50.0560 N.4          1 SAM300   1.0000
     2 CA           4.1250    -5.4320   -50.0890 C.3          1 SAM300   0.0000
     3 C            3.8470    -4.6510   -48.8020 C.2          1 SAM300   0.0000
     4 O            3.9360    -3.4190   -48.7480 O.co2        1 SAM300   0.0000
     5 OXT          3.5380    -5.2490   -47.7720 O.co2        1 SAM300  -1.0000
     6 CB           3.6740    -4.6810   -51.3360 C.3          1 SAM300   0.0000
     7 CG           4.5350    -5.0020   -52.5540 C.3          1 SAM300   0.0000
     8 SD           4.7340    -3.6050   -53.6930 S.3          1 SAM300   1.0000
     9 CE           3.0800    -3.5510   -54.4370 C.3          1 SAM300   0.0000
    10 C5'          5.7530    -4.3760   -54.9800 C.3          1 SAM300   0.0000
    11 C4'          7.1790    -4.6110   -54.4720 C.3          1 SAM300   0.0000
    12 O4'          7.8680    -5.5370   -55.2910 O.3          1 SAM300   0.0000
    13 C3'          8.0080    -3.3280   -54.4500 C.3          1 SAM300   0.0000
    14 O3'          8.5800    -3.1890   -53.1700 O.3          1 SAM300   0.0000
    15 C2'          9.0760    -3.5370   -55.5060 C.3          1 SAM300   0.0000
    16 O2'         10.3090    -2.9240   -55.1790 O.3          1 SAM300   0.0000
    17 C1'          9.1770    -5.0580   -55.5330 C.3          1 SAM300   0.0000
    18 N9           9.7150    -5.5980   -56.7970 N.pl3        1 SAM300   0.0000
    19 C8           9.7080    -5.0290   -58.0490 C.2          1 SAM300   0.0000
    20 N7          10.3180    -5.8830   -58.9080 N.2          1 SAM300   0.0000
    21 C5          10.7110    -6.9810   -58.2160 C.ar         1 SAM300   0.0000
    22 C6          11.3730    -8.1500   -58.5760 C.ar         1 SAM300   0.0000
    23 N6          11.7560    -8.3830   -59.8290 N.pl3        1 SAM300   0.0000
    24 N1          11.6400    -9.0880   -57.6040 N.ar         1 SAM300   0.0000
    25 C2          11.2710    -8.8980   -56.2900 C.ar         1 SAM300   0.0000
    26 N3          10.6090    -7.7470   -55.9460 N.ar         1 SAM300   0.0000
    27 C4          10.3390    -6.8070   -56.8880 C.ar         1 SAM300   0.0000
    28 H1           3.7317    -7.2775   -50.9127 H            1 SAM300   0.0000
    29 H2           3.9139    -7.3179   -49.2904 H            1 SAM300   0.0000
    30 HA           5.1163    -5.5449   -50.1561 H            1 SAM300   0.0000
    31 HB1          3.7269    -3.6988   -51.1556 H            1 SAM300   0.0000
    32 HB2          2.7273    -4.9325   -51.5371 H            1 SAM300   0.0000
    33 HG1          4.1088    -5.7573   -53.0519 H            1 SAM300   0.0000
    34 HG2          5.4408    -5.2816   -52.2357 H            1 SAM300   0.0000
    35 HE1          3.0390    -2.8078   -55.1048 H            1 SAM300   0.0000
    36 HE2          2.8914    -4.4204   -54.8938 H            1 SAM300   0.0000
    37 HE3          2.3980    -3.3951   -53.7225 H            1 SAM300   0.0000
    38 H5'1         5.7837    -3.7749   -55.7786 H            1 SAM300   0.0000
    39 H5'2         5.3477    -5.2529   -55.2383 H            1 SAM300   0.0000
    40 H4'          7.1318    -4.9780   -53.5430 H            1 SAM300   0.0000
    41 H3'          7.4402    -2.5354   -54.6723 H            1 SAM300   0.0000
    42 H15          9.1650    -3.9772   -52.9789 H            1 SAM300   0.0000
    43 H2'          8.7518    -3.2009   -56.3903 H            1 SAM300   0.0000
    44 H17         10.6534    -3.3049   -54.3209 H            1 SAM300   0.0000
    45 H1'          9.7687    -5.3522   -54.7824 H            1 SAM300   0.0000
    46 H19          9.3197    -4.1383   -58.2854 H            1 SAM300   0.0000
    47 H20         12.2303    -9.2333   -60.0569 H            1 SAM300   0.0000
    48 H21         11.5695    -7.7078   -60.5426 H            1 SAM300   0.0000
    49 H22         11.4825    -9.5884   -55.5982 H            1 SAM300   0.0000
    50 H23          2.5359    -6.7330   -49.9429 H            1 SAM300   0.0000
@<TRIPOS>BOND
     1    1    2       1
     2    2    3       1
     3    2    6       1
     4    3    4      ar
     5    3    5      ar
     6    6    7       1
     7    7    8       1
     8    8    9       1
     9    8   10       1
    10   10   11       1
    11   11   12       1
    12   11   13       1
    13   12   17       1
    14   13   14       1
    15   13   15       1
    16   15   16       1
    17   15   17       1
    18   17   18       1
    19   18   19       1
    20   18   27       1
    21   19   20       2
    22   20   21       1
    23   21   22      ar
    24   21   27      ar
    25   22   23       1
    26   22   24      ar
    27   24   25      ar
    28   25   26      ar
    29   26   27      ar
    30    1   28       1
    31    1   29       1
    32    2   30       1
    33    1   50       1
    34    6   31       1
    35    6   32       1
    36    7   33       1
    37    7   34       1
    38    9   35       1
    39    9   36       1
    40    9   37       1
    41   10   38       1
    42   10   39       1
    43   11   40       1
    44   13   41       1
    45   14   42       1
    46   15   43       1
    47   16   44       1
    48   17   45       1
    49   19   46       1
    50   23   47       1
    51   23   48       1
    52   25   49       1
@<TRIPOS>SUBSTRUCTURE
     1 SAM300      1 GROUP             4 A     SAM     0 **** SAM A 300
