@<TRIPOS>MOLECULE
2o4c_NAD_1_ligand
   70    74     1     0     0
SMALL
NO_CHARGES


@<TRIPOS>ATOM
     1 PA          16.6570    84.3990    -1.3320 P.3          1 NAD1002   0.0000
     2 O1A         16.8880    83.0830    -1.9390 O.co2        1 NAD1002   0.0000
     3 O2A         16.3400    85.5550    -2.1930 O.co2        1 NAD1002  -1.0000
     4 O5B         15.4120    84.2330    -0.3370 O.3          1 NAD1002   0.0000
     5 C5B         14.7080    85.3460     0.2140 C.3          1 NAD1002   0.0000
     6 C4B         13.2560    84.9310     0.4460 C.3          1 NAD1002   0.0000
     7 O4B         12.6220    85.9320     1.2170 O.3          1 NAD1002   0.0000
     8 C3B         12.5430    84.9000    -0.9090 C.3          1 NAD1002   0.0000
     9 O3B         11.9170    83.6290    -1.0290 O.3          1 NAD1002   0.0000
    10 C2B         11.5140    86.0290    -0.8190 C.3          1 NAD1002   0.0000
    11 O2B         10.2750    85.6920    -1.4810 O.3          1 NAD1002   0.0000
    12 C1B         11.3000    86.1040     0.6800 C.3          1 NAD1002   0.0000
    13 N9A         10.7460    87.4270     1.0880 N.pl3        1 NAD1002   0.0000
    14 C8A         10.9190    88.6050     0.4740 C.2          1 NAD1002   0.0000
    15 N7A         10.2700    89.5540     1.1570 N.2          1 NAD1002   0.0000
    16 C5A          9.6810    88.9870     2.2090 C.ar         1 NAD1002   0.0000
    17 C6A          8.8820    89.4470     3.2570 C.ar         1 NAD1002   0.0000
    18 N6A          8.5280    90.7320     3.3640 N.pl3        1 NAD1002   0.0000
    19 N1A          8.4440    88.5700     4.1810 N.ar         1 NAD1002   0.0000
    20 C2A          8.7640    87.2910     4.0910 C.ar         1 NAD1002   0.0000
    21 N3A          9.5190    86.8290     3.1080 N.ar         1 NAD1002   0.0000
    22 C4A          9.9920    87.6390     2.1630 C.ar         1 NAD1002   0.0000
    23 O3          17.8560    84.8140    -0.3270 O.3          1 NAD1002   0.0000
    24 PN          18.7480    83.7850     0.5510 P.3          1 NAD1002   0.0000
    25 O1N         17.9050    82.7110     1.1410 O.co2        1 NAD1002   0.0000
    26 O2N         19.9690    83.4440    -0.1820 O.co2        1 NAD1002  -1.0000
    27 O5D         19.2000    84.7230     1.7630 O.3          1 NAD1002   0.0000
    28 C5D         18.2070    85.3000     2.6160 C.3          1 NAD1002   0.0000
    29 C4D         18.8150    86.3610     3.5320 C.3          1 NAD1002   0.0000
    30 O4D         19.9180    85.7740     4.2820 O.3          1 NAD1002   0.0000
    31 C3D         19.4090    87.5130     2.6980 C.3          1 NAD1002   0.0000
    32 O3D         19.1940    88.7340     3.4100 O.3          1 NAD1002   0.0000
    33 C2D         20.8890    87.1740     2.6590 C.3          1 NAD1002   0.0000
    34 O2D         21.6800    88.3440     2.4850 O.3          1 NAD1002   0.0000
    35 C1D         21.0690    86.6090     4.0730 C.3          1 NAD1002   0.0000
    36 N1N         22.2620    85.7480     4.1280 N.ar         1 NAD1002   1.0000
    37 C2N         23.0920    85.8580     5.2510 C.ar         1 NAD1002   0.0000
    38 C3N         24.2320    85.0790     5.3530 C.ar         1 NAD1002   0.0000
    39 C7N         25.1190    85.1930     6.5890 C.2          1 NAD1002   0.0000
    40 O7N         26.3650    84.6910     6.5880 O.2          1 NAD1002   0.0000
    41 N7N         24.5990    85.7440     7.6800 N.am         1 NAD1002   0.0000
    42 C4N         24.5470    84.1880     4.3230 C.ar         1 NAD1002   0.0000
    43 C5N         23.7120    84.0480     3.2070 C.ar         1 NAD1002   0.0000
    44 C6N         22.5670    84.8250     3.0960 C.ar         1 NAD1002   0.0000
    45 H5B1        14.7415    86.1159    -0.4233 H            1 NAD1002   0.0000
    46 H5B2        15.1257    85.6136     1.0823 H            1 NAD1002   0.0000
    47 H4B         13.2045    84.0413     0.8997 H            1 NAD1002   0.0000
    48 H3B         13.1861    85.0573    -1.6584 H            1 NAD1002   0.0000
    49 H5          11.2604    83.5092    -0.2843 H            1 NAD1002   0.0000
    50 H2B         11.8888    86.8862    -1.1721 H            1 NAD1002   0.0000
    51 H7           9.6588    85.2491    -0.8297 H            1 NAD1002   0.0000
    52 H1B         10.6998    85.3645     0.9849 H            1 NAD1002   0.0000
    53 H8A         11.4487    88.7513    -0.3615 H            1 NAD1002   0.0000
    54 H6A1         7.9544    91.0308     4.1267 H            1 NAD1002   0.0000
    55 H6A2         8.8368    91.3942     2.6813 H            1 NAD1002   0.0000
    56 H2A          8.4262    86.6551     4.7849 H            1 NAD1002   0.0000
    57 H5D1        17.8000    84.5791     3.1770 H            1 NAD1002   0.0000
    58 H5D2        17.4983    85.7235     2.0517 H            1 NAD1002   0.0000
    59 H4D         18.1206    86.7128     4.1597 H            1 NAD1002   0.0000
    60 H3D         19.0136    87.5463     1.7801 H            1 NAD1002   0.0000
    61 H17         18.2128    88.8746     3.5419 H            1 NAD1002   0.0000
    62 H2D         21.0903    86.4872     1.9606 H            1 NAD1002   0.0000
    63 H19         22.2988    88.4469     3.2638 H            1 NAD1002   0.0000
    64 H1D         21.1164    87.3402     4.7536 H            1 NAD1002   0.0000
    65 H2N         22.8605    86.5010     5.9811 H            1 NAD1002   0.0000
    66 H7N1        25.1533    85.8340     8.5075 H            1 NAD1002   0.0000
    67 H7N2        23.6532    86.0688     7.6739 H            1 NAD1002   0.0000
    68 H4N         25.3822    83.6415     4.3838 H            1 NAD1002   0.0000
    69 H5N         23.9406    83.3887     2.4907 H            1 NAD1002   0.0000
    70 H6N         21.9671    84.7351     2.3010 H            1 NAD1002   0.0000
@<TRIPOS>BOND
     1    1    2      ar
     2    1    3      ar
     3    1    4       1
     4    1   23       1
     5    4    5       1
     6    5    6       1
     7    6    7       1
     8    6    8       1
     9    7   12       1
    10    8    9       1
    11    8   10       1
    12   10   11       1
    13   10   12       1
    14   12   13       1
    15   13   14       1
    16   13   22       1
    17   14   15       2
    18   15   16       1
    19   16   17      ar
    20   16   22      ar
    21   17   18       1
    22   17   19      ar
    23   19   20      ar
    24   20   21      ar
    25   21   22      ar
    26   23   24       1
    27   24   25      ar
    28   24   26      ar
    29   24   27       1
    30   27   28       1
    31   28   29       1
    32   29   30       1
    33   29   31       1
    34   30   35       1
    35   31   32       1
    36   31   33       1
    37   33   34       1
    38   33   35       1
    39   35   36       1
    40   36   37      ar
    41   36   44      ar
    42   37   38      ar
    43   38   39       1
    44   38   42      ar
    45   39   40       2
    46   39   41      am
    47   42   43      ar
    48   43   44      ar
    49   44   70       1
    50    5   45       1
    51    5   46       1
    52    6   47       1
    53    8   48       1
    54    9   49       1
    55   10   50       1
    56   11   51       1
    57   12   52       1
    58   14   53       1
    59   18   54       1
    60   18   55       1
    61   20   56       1
    62   43   69       1
    63   28   57       1
    64   28   58       1
    65   29   59       1
    66   31   60       1
    67   32   61       1
    68   33   62       1
    69   34   63       1
    70   35   64       1
    71   37   65       1
    72   41   66       1
    73   41   67       1
    74   42   68       1
@<TRIPOS>SUBSTRUCTURE
     1 NAD1002     1 GROUP             4 A     NAD     0 **** NAD A1002
