@<TRIPOS>MOLECULE
5dsg_0HK_2_ligand
   48    52     1     0     0
SMALL
USER_CHARGES


@<TRIPOS>ATOM
     1 C28         61.6850     0.6780    92.4540 C.2          1 0HK1201   0.0000
     2 O29         62.5460     1.1140    91.6980 O.2          1 0HK1201   0.0000
     3 C31         59.7650    -0.7170    91.8890 C.2          1 0HK1201   0.0000
     4 C32         59.4330     1.3220    93.2020 C.2          1 0HK1201   0.0000
     5 C34         60.5260    -1.8640    91.8370 C.2          1 0HK1201   0.0000
     6 C35         59.9070    -3.0630    91.6520 C.2          1 0HK1201   0.0000
     7 C36         58.5420    -3.0870    91.5230 C.2          1 0HK1201   0.0000
     8 C41         58.9030     0.6820    94.2940 C.2          1 0HK1201   0.0000
     9 C42         58.2110     1.3900    95.2170 C.2          1 0HK1201   0.0000
    10 C43         58.0510     2.7410    95.0380 C.2          1 0HK1201   0.0000
    11 O10         61.2140     0.4490    97.5870 O.3          1 0HK1201   0.0000
    12 O11         62.0130     0.1390    93.7120 O.3          1 0HK1201   0.0000
    13 O33         60.1180     1.4160    90.9130 O.3          1 0HK1201   0.0000
    14 S37         58.1200    -1.3520    91.6680 S.3          1 0HK1201   0.0000
    15 S44         58.9270     3.0070    93.4890 S.3          1 0HK1201   0.0000
    16 C1          65.3920     0.0350    96.8680 C.3          1 0HK1201   0.0000
    17 C3          63.2140    -0.8290    96.5280 C.3          1 0HK1201   0.0000
    18 C4          63.4840    -1.1070    95.0780 C.3          1 0HK1201   0.0000
    19 C5          63.3300     0.1300    94.2210 C.3          1 0HK1201   0.0000
    20 C6          63.6330     1.4240    94.9580 C.3          1 0HK1201   0.0000
    21 C7          63.3740     1.2910    96.4370 C.3          1 0HK1201   0.0000
    22 C8          61.8580     1.0870    96.4870 C.3          1 0HK1201   0.0000
    23 C9          61.7530    -0.3800    96.5560 C.3          1 0HK1201   0.0000
    24 C12         63.9480     0.2730    98.5420 C.3          1 0HK1201   0.0000
    25 C30         60.2280     0.7000    92.0800 C.3          1 0HK1201   0.0000
    26 N2          63.9920     0.1960    97.0860 N.4          1 0HK1201   1.0000
    27 H1          61.5202    -1.8170    91.9338 H            1 0HK1201   0.0000
    28 H2          60.4377    -3.9096    91.6110 H            1 0HK1201   0.0000
    29 H3          57.9375    -3.8714    91.3838 H            1 0HK1201   0.0000
    30 H4          59.0275    -0.3037    94.4074 H            1 0HK1201   0.0000
    31 H5          57.8219     0.9350    96.0180 H            1 0HK1201   0.0000
    32 H6          57.5736     3.4030    95.6159 H            1 0HK1201   0.0000
    33 H7          60.6578     0.9724    90.1976 H            1 0HK1201   0.0000
    34 H8          65.8847     0.7962    97.2897 H            1 0HK1201   0.0000
    35 H9          65.6961    -0.8258    97.2761 H            1 0HK1201   0.0000
    36 H10         65.5770     0.0217    95.8853 H            1 0HK1201   0.0000
    37 H11         63.3227    -1.6678    97.0615 H            1 0HK1201   0.0000
    38 H12         62.8407    -1.8026    94.7582 H            1 0HK1201   0.0000
    39 H13         64.4189    -1.4494    94.9843 H            1 0HK1201   0.0000
    40 H14         63.9619     0.0554    93.4495 H            1 0HK1201   0.0000
    41 H15         63.0527     2.1508    94.5905 H            1 0HK1201   0.0000
    42 H16         64.5941     1.6612    94.8165 H            1 0HK1201   0.0000
    43 H17         63.6173     2.1423    96.9019 H            1 0HK1201   0.0000
    44 H18         61.2912     1.5729    95.8216 H            1 0HK1201   0.0000
    45 H19         61.1120    -0.8332    95.9365 H            1 0HK1201   0.0000
    46 H20         63.0009     0.3894    98.8412 H            1 0HK1201   0.0000
    47 H21         64.3195    -0.5697    98.9317 H            1 0HK1201   0.0000
    48 H22         64.4934     1.0520    98.8512 H            1 0HK1201   0.0000
@<TRIPOS>BOND
     1    1    2       2
     2    1   12       1
     3    1   25       1
     4    3    5       2
     5    3   14       1
     6    3   25       1
     7    4    8       2
     8    4   15       1
     9    4   25       1
    10    5    6       1
    11    6    7       2
    12    7   14       1
    13    8    9       1
    14    9   10       2
    15   10   15       1
    16   11   22       1
    17   11   23       1
    18   12   19       1
    19   13   25       1
    20   16   26       1
    21   17   18       1
    22   17   23       1
    23   17   26       1
    24   18   19       1
    25   19   20       1
    26   20   21       1
    27   21   22       1
    28   21   26       1
    29   22   23       1
    30   24   26       1
    31    5   27       1
    32    6   28       1
    33    7   29       1
    34    8   30       1
    35    9   31       1
    36   10   32       1
    37   13   33       1
    38   16   34       1
    39   16   35       1
    40   16   36       1
    41   17   37       1
    42   18   38       1
    43   18   39       1
    44   19   40       1
    45   20   41       1
    46   20   42       1
    47   21   43       1
    48   22   44       1
    49   23   45       1
    50   24   46       1
    51   24   47       1
    52   24   48       1
@<TRIPOS>SUBSTRUCTURE
     1 0HK1201     1 GROUP             4 B     0HK     0 **** 0HK B1201
