@<TRIPOS>MOLECULE
3we0_FAD_2_ligand
   84    89     1     0     0
SMALL
NO_CHARGES


@<TRIPOS>ATOM
     1 PA          22.9020    -3.5270    13.4240 P.3          1 FAD601   0.0000
     2 O1A         21.8170    -2.5830    13.2100 O.co2        1 FAD601   0.0000
     3 O2A         23.4460    -4.4250    12.3320 O.co2        1 FAD601  -1.0000
     4 O5B         22.5400    -4.4360    14.6480 O.3          1 FAD601   0.0000
     5 C5B         21.6540    -3.8770    15.6290 C.3          1 FAD601   0.0000
     6 C4B         20.6590    -4.9850    15.9140 C.3          1 FAD601   0.0000
     7 O4B         19.8480    -4.5640    17.0020 O.3          1 FAD601   0.0000
     8 C3B         19.7380    -5.2350    14.6950 C.3          1 FAD601   0.0000
     9 O3B         19.8730    -6.6400    14.3260 O.3          1 FAD601   0.0000
    10 C2B         18.3620    -4.9340    15.2880 C.3          1 FAD601   0.0000
    11 O2B         17.3180    -5.7950    14.8660 O.3          1 FAD601   0.0000
    12 C1B         18.5710    -5.1390    16.8130 C.3          1 FAD601   0.0000
    13 N9A         17.5440    -4.4180    17.6580 N.pl3        1 FAD601   0.0000
    14 C8A         16.9770    -3.2130    17.4070 C.2          1 FAD601   0.0000
    15 N7A         16.1000    -2.9140    18.4000 N.2          1 FAD601   0.0000
    16 C5A         16.1330    -3.9020    19.3060 C.ar         1 FAD601   0.0000
    17 C6A         15.4620    -4.2180    20.5900 C.ar         1 FAD601   0.0000
    18 N6A         14.5360    -3.3840    21.1470 N.pl3        1 FAD601   0.0000
    19 N1A         15.8170    -5.3390    21.1790 N.ar         1 FAD601   0.0000
    20 C2A         16.7140    -6.2560    20.6870 C.ar         1 FAD601   0.0000
    21 N3A         17.3680    -6.0020    19.5150 N.ar         1 FAD601   0.0000
    22 C4A         17.1000    -4.8690    18.8220 C.ar         1 FAD601   0.0000
    23 N1          29.4270    -0.9750     5.7310 N.2          1 FAD601   0.0000
    24 C2          30.5240    -1.1210     5.0370 C.2          1 FAD601   0.0000
    25 O2          31.6000    -1.2970     5.6000 O.2          1 FAD601   0.0000
    26 N3          30.5370    -1.0960     3.6690 N.pl3        1 FAD601   0.0000
    27 C4          29.4350    -0.9090     2.9520 C.2          1 FAD601   0.0000
    28 O4          29.4450    -0.8850     1.6830 O.2          1 FAD601   0.0000
    29 C4X         28.2150    -0.7230     3.6290 C.2          1 FAD601   0.0000
    30 N5          27.1020    -0.4160     2.9870 N.2          1 FAD601   0.0000
    31 C5X         25.9340    -0.4100     3.5810 C.ar         1 FAD601   0.0000
    32 C6          24.7720    -0.2830     2.8260 C.ar         1 FAD601   0.0000
    33 C7          23.5730    -0.2120     3.4660 C.ar         1 FAD601   0.0000
    34 C7M         22.2020    -0.0360     2.7860 C.3          1 FAD601   0.0000
    35 C8          23.5820    -0.2810     4.9650 C.ar         1 FAD601   0.0000
    36 C8M         22.2620    -0.2100     5.6290 C.3          1 FAD601   0.0000
    37 C9          24.6940    -0.4460     5.7130 C.ar         1 FAD601   0.0000
    38 C9A         25.9170    -0.5110     5.0690 C.ar         1 FAD601   0.0000
    39 N10         27.1250    -0.6050     5.7790 N.pl3        1 FAD601   0.0000
    40 C10         28.2630    -0.7840     5.1220 C.2          1 FAD601   0.0000
    41 C1'         27.2380    -0.6290     7.3240 C.3          1 FAD601   0.0000
    42 C2'         27.2580    -1.9170     8.0590 C.3          1 FAD601   0.0000
    43 O2'         26.1990    -2.6450     7.4660 O.3          1 FAD601   0.0000
    44 C3'         26.8290    -1.4160     9.4750 C.3          1 FAD601   0.0000
    45 O3'         27.8230    -0.4480     9.9040 O.3          1 FAD601   0.0000
    46 C4'         26.8230    -2.5370    10.4460 C.3          1 FAD601   0.0000
    47 O4'         26.1920    -3.7000     9.8920 O.3          1 FAD601   0.0000
    48 C5'         25.9270    -2.1220    11.6270 C.3          1 FAD601   0.0000
    49 O5'         26.2270    -3.0620    12.6510 O.3          1 FAD601   0.0000
    50 P           25.6870    -2.8020    14.2020 P.3          1 FAD601   0.0000
    51 O1P         26.1280    -1.3420    14.5790 O.co2        1 FAD601   0.0000
    52 O2P         25.9150    -4.0350    15.0000 O.co2        1 FAD601  -1.0000
    53 O3P         24.1210    -2.5780    14.0060 O.3          1 FAD601   0.0000
    54 H5B1        21.1895    -3.0689    15.2666 H            1 FAD601   0.0000
    55 H5B2        22.1551    -3.6296    16.4582 H            1 FAD601   0.0000
    56 H4B         21.1436    -5.8260    16.1544 H            1 FAD601   0.0000
    57 H3B         19.9562    -4.6266    13.9320 H            1 FAD601   0.0000
    58 H5          19.5975    -7.2149    15.0964 H            1 FAD601   0.0000
    59 H2B         18.1134    -3.9830    15.1040 H            1 FAD601   0.0000
    60 H7          17.2572    -6.5752    15.4886 H            1 FAD601   0.0000
    61 H1B         18.5882    -6.1134    17.0370 H            1 FAD601   0.0000
    62 H8A         17.1735    -2.6348    16.6151 H            1 FAD601   0.0000
    63 H6A1        14.1019    -3.6270    22.0145 H            1 FAD601   0.0000
    64 H6A2        14.2917    -2.5301    20.6876 H            1 FAD601   0.0000
    65 H2A         16.8874    -7.1058    21.1848 H            1 FAD601   0.0000
    66 H13         31.4069    -1.2230     3.1924 H            1 FAD601   0.0000
    67 H14         24.8173    -0.2445     1.8278 H            1 FAD601   0.0000
    68 H7M1        21.4848    -0.0146     3.4825 H            1 FAD601   0.0000
    69 H7M2        22.1927     0.8214     2.2715 H            1 FAD601   0.0000
    70 H7M3        22.0385    -0.8006     2.1626 H            1 FAD601   0.0000
    71 H8M1        22.3840    -0.2645     6.6200 H            1 FAD601   0.0000
    72 H8M2        21.8172     0.6545     5.3950 H            1 FAD601   0.0000
    73 H8M3        21.6924    -0.9720     5.3209 H            1 FAD601   0.0000
    74 H21         24.6351    -0.5195     6.7086 H            1 FAD601   0.0000
    75 H1'1        26.4586    -0.1107     7.6760 H            1 FAD601   0.0000
    76 H1'2        28.0866    -0.1538     7.5563 H            1 FAD601   0.0000
    77 H2'         28.1405    -2.3870     8.0398 H            1 FAD601   0.0000
    78 H25         25.8049    -3.2693     8.1405 H            1 FAD601   0.0000
    79 H3'         25.9256    -0.9894     9.4326 H            1 FAD601   0.0000
    80 H27         27.3815     0.4351    10.0629 H            1 FAD601   0.0000
    81 H4'         27.7502    -2.7465    10.7565 H            1 FAD601   0.0000
    82 H29         25.7652    -4.2290    10.6255 H            1 FAD601   0.0000
    83 H5'1        24.9612    -2.1730    11.3726 H            1 FAD601   0.0000
    84 H5'2        26.1444    -1.1928    11.9258 H            1 FAD601   0.0000
@<TRIPOS>BOND
     1    1    2      ar
     2    1    3      ar
     3    1    4       1
     4    1   53       1
     5    4    5       1
     6    5    6       1
     7    6    7       1
     8    6    8       1
     9    7   12       1
    10    8    9       1
    11    8   10       1
    12   10   11       1
    13   10   12       1
    14   12   13       1
    15   13   14       1
    16   13   22       1
    17   14   15       2
    18   15   16       1
    19   16   17      ar
    20   16   22      ar
    21   17   18       1
    22   17   19      ar
    23   19   20      ar
    24   20   21      ar
    25   21   22      ar
    26   23   24       1
    27   23   40       2
    28   24   25       2
    29   24   26       1
    30   26   27       1
    31   27   28       2
    32   27   29       1
    33   29   30       2
    34   29   40       1
    35   30   31       1
    36   31   32      ar
    37   31   38      ar
    38   32   33      ar
    39   33   34       1
    40   33   35      ar
    41   35   36       1
    42   35   37      ar
    43   37   38      ar
    44   38   39       1
    45   39   40       1
    46   39   41       1
    47   41   42       1
    48   42   43       1
    49   42   44       1
    50   44   45       1
    51   44   46       1
    52   46   47       1
    53   46   48       1
    54   48   49       1
    55   49   50       1
    56   50   51      ar
    57   50   52      ar
    58   50   53       1
    59   48   84       1
    60    5   54       1
    61    5   55       1
    62    6   56       1
    63    8   57       1
    64    9   58       1
    65   10   59       1
    66   11   60       1
    67   12   61       1
    68   14   62       1
    69   18   63       1
    70   18   64       1
    71   20   65       1
    72   26   66       1
    73   32   67       1
    74   34   68       1
    75   34   69       1
    76   34   70       1
    77   36   71       1
    78   36   72       1
    79   36   73       1
    80   37   74       1
    81   41   75       1
    82   41   76       1
    83   42   77       1
    84   43   78       1
    85   44   79       1
    86   45   80       1
    87   46   81       1
    88   47   82       1
    89   48   83       1
@<TRIPOS>SUBSTRUCTURE
     1 FAD601      1 GROUP             4 B     FAD     0 **** FAD B 601
