@<TRIPOS>MOLECULE
4m6p_20R_1_ligand
   44    47     1     0     0
SMALL
NO_CHARGES


@<TRIPOS>ATOM
     1 C1          17.6850     3.5980    -3.8450 C.ar         1 20R601   0.0000
     2 C2          17.5010     3.3580    -2.4850 C.ar         1 20R601   0.0000
     3 C3          16.4510     3.9610    -1.8100 C.ar         1 20R601   0.0000
     4 C4          15.5700     4.7930    -2.4980 C.ar         1 20R601   0.0000
     5 C5          15.7430     5.0070    -3.8670 C.ar         1 20R601   0.0000
     6 C6          16.8090     4.4040    -4.5560 C.ar         1 20R601   0.0000
     7 S7          14.2320     5.5040    -1.5650 S.o2         1 20R601   0.0000
     8 O8          13.7730     4.4110    -0.7400 O.2          1 20R601   0.0000
     9 O9          13.2850     6.0960    -2.4500 O.2          1 20R601   0.0000
    10 C10         15.0480     6.6720    -0.5330 C.ar         1 20R601   0.0000
    11 C11         15.4620     7.8900    -1.0040 C.ar         1 20R601   0.0000
    12 C12         16.1410     8.7690    -0.1970 C.ar         1 20R601   0.0000
    13 C13         16.4220     8.4250     1.0980 C.ar         1 20R601   0.0000
    14 C14         16.0390     7.2050     1.5630 C.ar         1 20R601   0.0000
    15 C15         15.3410     6.3350     0.7620 C.ar         1 20R601   0.0000
    16 C16         17.2320     9.3510     1.9690 C.3          1 20R601   0.0000
    17 N17         16.7410     9.5340     3.3570 N.am         1 20R601   0.0000
    18 C18         15.6900    10.3260     3.4400 C.2          1 20R601   0.0000
    19 O19         15.1650    10.7910     2.4160 O.2          1 20R601   0.0000
    20 C20         15.1110    10.5780     4.7700 C.ar         1 20R601   0.0000
    21 C21         15.6610    10.0220     5.9260 C.ar         1 20R601   0.0000
    22 C22         15.0360    10.3260     7.1380 C.ar         1 20R601   0.0000
    23 C23         15.2440     9.9510     8.5180 C.2          1 20R601   0.0000
    24 N24         14.2960    10.5130     9.2100 N.2          1 20R601   0.0000
    25 N25         13.4960    11.3300     8.4160 N.pl3        1 20R601   0.0000
    26 C27         13.9110    11.1850     7.1290 C.ar         1 20R601   0.0000
    27 N28         13.4600    11.6970     6.0080 N.ar         1 20R601   0.0000
    28 C29         14.0110    11.4050     4.8480 C.ar         1 20R601   0.0000
    29 H1          18.4624     3.1817    -4.3166 H            1 20R601   0.0000
    30 H2          18.1266     2.7505    -1.9956 H            1 20R601   0.0000
    31 H3          16.3260     3.7992    -0.8311 H            1 20R601   0.0000
    32 H4          15.1026     5.5946    -4.3615 H            1 20R601   0.0000
    33 H5          16.9330     4.5528    -5.5371 H            1 20R601   0.0000
    34 H6          15.2664     8.1431    -1.9515 H            1 20R601   0.0000
    35 H7          16.4293     9.6575    -0.5539 H            1 20R601   0.0000
    36 H8          16.2685     6.9387     2.4992 H            1 20R601   0.0000
    37 H9          15.0453     5.4516     1.1256 H            1 20R601   0.0000
    38 H10         17.2477    10.2489     1.5292 H            1 20R601   0.0000
    39 H11         18.1625     8.9880     2.0190 H            1 20R601   0.0000
    40 H12         17.1653     9.0995     4.1514 H            1 20R601   0.0000
    41 H13         16.4673     9.4317     5.8884 H            1 20R601   0.0000
    42 H14         15.9766     9.3704     8.8734 H            1 20R601   0.0000
    43 H15         12.7515    11.9169     8.7342 H            1 20R601   0.0000
    44 H16         13.6248    11.7897     4.0096 H            1 20R601   0.0000
@<TRIPOS>BOND
     1    1    2      ar
     2    1    6      ar
     3    2    3      ar
     4    3    4      ar
     5    4    5      ar
     6    4    7       1
     7    5    6      ar
     8    7    8       2
     9    7    9       2
    10    7   10       1
    11   10   11      ar
    12   10   15      ar
    13   11   12      ar
    14   12   13      ar
    15   13   14      ar
    16   13   16       1
    17   14   15      ar
    18   16   17       1
    19   17   18      am
    20   18   19       2
    21   18   20       1
    22   20   21      ar
    23   20   28      ar
    24   21   22      ar
    25   22   23       1
    26   22   26      ar
    27   23   24       2
    28   24   25       1
    29   25   26       1
    30   26   27      ar
    31   27   28      ar
    32    1   29       1
    33    2   30       1
    34    3   31       1
    35    5   32       1
    36    6   33       1
    37   11   34       1
    38   12   35       1
    39   14   36       1
    40   15   37       1
    41   16   38       1
    42   16   39       1
    43   17   40       1
    44   21   41       1
    45   23   42       1
    46   25   43       1
    47   28   44       1
@<TRIPOS>SUBSTRUCTURE
     1 20R601      1 GROUP             4 A     20R     0 **** 20R A 601
