@<TRIPOS>MOLECULE
4wzh_FMN_2_ligand
   50    52     1     0     0
SMALL
NO_CHARGES


@<TRIPOS>ATOM
     1 N1          -8.4550    24.3350    39.6980 N.2          1 FMN401   0.0000
     2 C2          -9.7450    24.7530    39.4130 C.2          1 FMN401   0.0000
     3 O2          -9.9490    25.5730    38.5200 O.2          1 FMN401   0.0000
     4 N3         -10.8090    24.2520    40.1170 N.pl3        1 FMN401   0.0000
     5 C4         -10.5930    23.3370    41.1330 C.2          1 FMN401   0.0000
     6 O4         -11.5450    22.8880    41.7780 O.2          1 FMN401   0.0000
     7 C4A         -9.3000    22.9190    41.4250 C.2          1 FMN401   0.0000
     8 N5          -9.0870    21.9980    42.4370 N.2          1 FMN401   0.0000
     9 C5A         -7.7960    21.6100    42.7420 C.ar         1 FMN401   0.0000
    10 C6          -7.5740    20.6970    43.7730 C.ar         1 FMN401   0.0000
    11 C7          -6.2770    20.3000    44.0640 C.ar         1 FMN401   0.0000
    12 C7M         -6.0240    19.3150    45.1630 C.3          1 FMN401   0.0000
    13 C8          -5.2030    20.8190    43.3370 C.ar         1 FMN401   0.0000
    14 C8M         -3.7990    20.3940    43.6440 C.3          1 FMN401   0.0000
    15 C9          -5.4290    21.7320    42.3200 C.ar         1 FMN401   0.0000
    16 C9A         -6.7200    22.1240    42.0070 C.ar         1 FMN401   0.0000
    17 N10         -6.9380    23.0310    40.9790 N.pl3        1 FMN401   0.0000
    18 C10         -8.2250    23.4290    40.6920 C.2          1 FMN401   0.0000
    19 C1'         -5.7830    23.6010    40.1910 C.3          1 FMN401   0.0000
    20 C2'         -5.2290    24.8570    40.8550 C.3          1 FMN401   0.0000
    21 O2'         -6.2180    25.8640    40.8540 O.3          1 FMN401   0.0000
    22 C3'         -4.0240    25.3690    40.0840 C.3          1 FMN401   0.0000
    23 O3'         -4.5180    25.6710    38.8030 O.3          1 FMN401   0.0000
    24 C4'         -2.8840    24.3350    39.9790 C.3          1 FMN401   0.0000
    25 O4'         -2.7000    23.6340    41.1940 O.3          1 FMN401   0.0000
    26 C5'         -1.5640    24.9860    39.6000 C.3          1 FMN401   0.0000
    27 O5'         -1.1400    25.8540    40.6430 O.3          1 FMN401   0.0000
    28 P           -0.0480    25.3940    41.7340 P.3          1 FMN401   0.0000
    29 O1P         -0.6060    24.1900    42.4820 O.co2        1 FMN401   0.0000
    30 O2P          1.2140    25.0620    40.9990 O.co2        1 FMN401  -1.0000
    31 O3P          0.2120    26.5310    42.7080 O.co2        1 FMN401  -1.0000
    32 H1         -11.7390    24.5467    39.8972 H            1 FMN401   0.0000
    33 H2          -8.3430    20.3319    44.2977 H            1 FMN401   0.0000
    34 H7M1        -5.0417    19.1424    45.2363 H            1 FMN401   0.0000
    35 H7M2        -6.3627    19.6860    46.0277 H            1 FMN401   0.0000
    36 H7M3        -6.4986    18.4588    44.9590 H            1 FMN401   0.0000
    37 H8M1        -3.1663    20.8640    43.0285 H            1 FMN401   0.0000
    38 H8M2        -3.5792    20.6288    44.5909 H            1 FMN401   0.0000
    39 H8M3        -3.7147    19.4056    43.5174 H            1 FMN401   0.0000
    40 H9          -4.6565    22.1098    41.8095 H            1 FMN401   0.0000
    41 H1'1        -6.0982    23.8308    39.2702 H            1 FMN401   0.0000
    42 H1'2        -5.0574    22.9153    40.1335 H            1 FMN401   0.0000
    43 H2'         -4.9621    24.6494    41.7961 H            1 FMN401   0.0000
    44 H13         -7.0192    25.5448    41.3601 H            1 FMN401   0.0000
    45 H3'         -3.6805    26.2032    40.5154 H            1 FMN401   0.0000
    46 H15         -3.7739    26.0176    38.2319 H            1 FMN401   0.0000
    47 H4'         -3.1239    23.6739    39.2681 H            1 FMN401   0.0000
    48 H17         -1.7706    23.7872    41.5298 H            1 FMN401   0.0000
    49 H5'1        -1.6826    25.5118    38.7577 H            1 FMN401   0.0000
    50 H5'2        -0.8733    24.2774    39.4561 H            1 FMN401   0.0000
@<TRIPOS>BOND
     1    1    2       1
     2    1   18       2
     3    2    3       2
     4    2    4       1
     5    4    5       1
     6    5    6       2
     7    5    7       1
     8    7    8       2
     9    7   18       1
    10    8    9       1
    11    9   10      ar
    12    9   16      ar
    13   10   11      ar
    14   11   12       1
    15   11   13      ar
    16   13   14       1
    17   13   15      ar
    18   15   16      ar
    19   16   17       1
    20   17   18       1
    21   17   19       1
    22   19   20       1
    23   20   21       1
    24   20   22       1
    25   22   23       1
    26   22   24       1
    27   24   25       1
    28   24   26       1
    29   26   27       1
    30   27   28       1
    31   28   29      ar
    32   28   30      ar
    33   28   31      ar
    34    4   32       1
    35   10   33       1
    36   12   34       1
    37   12   35       1
    38   12   36       1
    39   14   37       1
    40   14   38       1
    41   14   39       1
    42   15   40       1
    43   19   41       1
    44   19   42       1
    45   20   43       1
    46   21   44       1
    47   22   45       1
    48   23   46       1
    49   24   47       1
    50   25   48       1
    51   26   49       1
    52   26   50       1
@<TRIPOS>SUBSTRUCTURE
     1 FMN401      1 GROUP             4 B     FMN     0 **** FMN B 401
