@<TRIPOS>MOLECULE
4dxa_GSP_1_ligand
   44    46     1     0     0
SMALL
NO_CHARGES


@<TRIPOS>ATOM
     1 PG          31.7670     6.1430    30.9300 P.3          1 GSP201   0.0000
     2 O3B         31.2490     4.9060    30.0160 O.3          1 GSP201   0.0000
     3 S1G         33.0090     5.3360    32.1870 S.2          1 GSP201   0.0000
     4 O2G         30.5830     6.9380    31.6770 O.co2        1 GSP201  -1.0000
     5 O3G         32.7110     7.2040    30.2040 O.co2        1 GSP201  -1.0000
     6 PB          30.1900     4.8130    28.8040 P.3          1 GSP201   0.0000
     7 O1B         28.7730     4.9850    29.3280 O.co2        1 GSP201   0.0000
     8 O2B         30.4480     5.5270    27.5220 O.co2        1 GSP201  -1.0000
     9 PA          31.1770     2.8650    26.9400 P.3          1 GSP201   0.0000
    10 O1A         32.6490     3.1330    27.1500 O.co2        1 GSP201   0.0000
    11 O2A         30.4780     3.3420    25.6950 O.co2        1 GSP201  -1.0000
    12 O3A         30.4030     3.2970    28.3030 O.3          1 GSP201   0.0000
    13 O5'         30.9170     1.2750    27.0070 O.3          1 GSP201   0.0000
    14 C5'         31.4440     0.4740    28.0700 C.3          1 GSP201   0.0000
    15 C4'         31.6000    -0.9610    27.5890 C.3          1 GSP201   0.0000
    16 O4'         30.3230    -1.5150    27.2840 O.3          1 GSP201   0.0000
    17 C3'         32.4010    -1.0300    26.3040 C.3          1 GSP201   0.0000
    18 O3'         33.1940    -2.2140    26.3880 O.3          1 GSP201   0.0000
    19 C2'         31.3710    -1.2280    25.2170 C.3          1 GSP201   0.0000
    20 O2'         31.8940    -1.9650    24.1060 O.3          1 GSP201   0.0000
    21 C1'         30.2690    -1.9770    25.9450 C.3          1 GSP201   0.0000
    22 N9          28.9420    -1.6650    25.3700 N.pl3        1 GSP201   0.0000
    23 C8          28.4040    -0.4390    25.2550 C.2          1 GSP201   0.0000
    24 N7          27.1910    -0.5140    24.6600 N.2          1 GSP201   0.0000
    25 C5          26.9300    -1.8030    24.3930 C.2          1 GSP201   0.0000
    26 C6          25.8170    -2.5730    23.7910 C.2          1 GSP201   0.0000
    27 O6          24.7790    -2.0120    23.3670 O.2          1 GSP201   0.0000
    28 N1          25.9660    -3.9010    23.7040 N.pl3        1 GSP201   0.0000
    29 C2          27.0670    -4.5530    24.1400 C.2          1 GSP201   0.0000
    30 N2          27.1240    -5.9120    24.0140 N.pl3        1 GSP201   0.0000
    31 N3          28.1130    -3.9060    24.7120 N.2          1 GSP201   0.0000
    32 C4          28.0970    -2.5610    24.8610 C.2          1 GSP201   0.0000
    33 H5'1        30.8176     0.4989    28.8491 H            1 GSP201   0.0000
    34 H5'2        32.3355     0.8320    28.3476 H            1 GSP201   0.0000
    35 H4'         32.0467    -1.5087    28.2964 H            1 GSP201   0.0000
    36 H3'         32.9555    -0.2108    26.1574 H            1 GSP201   0.0000
    37 H5          33.7448    -2.3059    25.5584 H            1 GSP201   0.0000
    38 H2'         31.0305    -0.3407    24.9060 H            1 GSP201   0.0000
    39 H7          32.2891    -1.3307    23.4415 H            1 GSP201   0.0000
    40 H1'         30.4385    -2.9619    25.9111 H            1 GSP201   0.0000
    41 H9          28.8377     0.4072    25.5646 H            1 GSP201   0.0000
    42 H10         25.2264    -4.4367    23.2965 H            1 GSP201   0.0000
    43 H11         27.9310    -6.4102    24.3313 H            1 GSP201   0.0000
    44 H12         26.3588    -6.4087    23.6045 H            1 GSP201   0.0000
@<TRIPOS>BOND
     1    1    2       1
     2    1    3       2
     3    1    4      ar
     4    1    5      ar
     5    2    6       1
     6    6    7      ar
     7    6    8      ar
     8    6   12       1
     9    9   10      ar
    10    9   11      ar
    11    9   12       1
    12    9   13       1
    13   13   14       1
    14   14   15       1
    15   15   16       1
    16   15   17       1
    17   16   21       1
    18   17   18       1
    19   17   19       1
    20   19   20       1
    21   19   21       1
    22   21   22       1
    23   22   23       1
    24   22   32       1
    25   23   24       2
    26   24   25       1
    27   25   26       1
    28   25   32       2
    29   26   27       2
    30   26   28       1
    31   28   29       1
    32   29   30       1
    33   29   31       2
    34   31   32       1
    35   30   44       1
    36   30   43       1
    37   28   42       1
    38   23   41       1
    39   14   33       1
    40   14   34       1
    41   15   35       1
    42   17   36       1
    43   18   37       1
    44   19   38       1
    45   20   39       1
    46   21   40       1
@<TRIPOS>SUBSTRUCTURE
     1 GSP201      1 GROUP             4 A     GSP     0 **** GSP A 201
