@<TRIPOS>MOLECULE
2de4_BPS_2_ligand
   24    25     1     0     0
SMALL
NO_CHARGES


@<TRIPOS>ATOM
     1 CX1         -2.7520     4.3750    39.6590 C.ar         1 BPS2366   0.0000
     2 CX2         -1.8200     3.5530    40.2880 C.ar         1 BPS2366   0.0000
     3 CX3         -0.5530     4.0480    40.6000 C.ar         1 BPS2366   0.0000
     4 CX4         -0.2280     5.3620    40.2700 C.ar         1 BPS2366   0.0000
     5 CX5         -1.1590     6.1790    39.6370 C.ar         1 BPS2366   0.0000
     6 CX6         -2.4260     5.6890    39.3320 C.ar         1 BPS2366   0.0000
     7 CX7         -2.1690     2.2260    40.5430 C.ar         1 BPS2366   0.0000
     8 CX8         -2.8460     1.8990    41.7170 C.ar         1 BPS2366   0.0000
     9 CX9         -3.1770     0.5730    41.9860 C.ar         1 BPS2366   0.0000
    10 CXA         -2.8310    -0.4280    41.0820 C.ar         1 BPS2366   0.0000
    11 CXB         -2.1580    -0.1020    39.9060 C.ar         1 BPS2366   0.0000
    12 CXC         -1.8290     1.2240    39.6360 C.ar         1 BPS2366   0.0000
    13 SX1          0.6490     3.0650    41.4170 S.o          1 BPS2366   0.0000
    14 OX1          1.1640     2.0820    40.5150 O.co2        1 BPS2366   0.0000
    15 OX2          1.7890     3.9260    41.8780 O.co2        1 BPS2366  -1.0000
    16 HX1         -3.6609     4.0195    39.4408 H            1 BPS2366   0.0000
    17 HX4          0.6797     5.7198    40.4894 H            1 BPS2366   0.0000
    18 HX5         -0.9178     7.1202    39.4005 H            1 BPS2366   0.0000
    19 HX6         -3.0977     6.2768    38.8810 H            1 BPS2366   0.0000
    20 HX8         -3.0943     2.6174    42.3669 H            1 BPS2366   0.0000
    21 HX9         -3.6631     0.3399    42.8283 H            1 BPS2366   0.0000
    22 HXA         -3.0654    -1.3805    41.2766 H            1 BPS2366   0.0000
    23 HXB         -1.9112    -0.8205    39.2558 H            1 BPS2366   0.0000
    24 HXC         -1.3484     1.4574    38.7907 H            1 BPS2366   0.0000
@<TRIPOS>BOND
     1    1    2      ar
     2    1    6      ar
     3    2    3      ar
     4    2    7       1
     5    3    4      ar
     6    3   13       1
     7    4    5      ar
     8    5    6      ar
     9    7    8      ar
    10    7   12      ar
    11    8    9      ar
    12    9   10      ar
    13   10   11      ar
    14   11   12      ar
    15   13   14      ar
    16   13   15      ar
    17    1   16       1
    18    4   17       1
    19    5   18       1
    20    6   19       1
    21    8   20       1
    22    9   21       1
    23   10   22       1
    24   11   23       1
    25   12   24       1
@<TRIPOS>SUBSTRUCTURE
     1 BPS2366     1 GROUP             4 B     BPS     0 **** BPS B2366
