@<TRIPOS>MOLECULE
./coach420/2j72/ligand.pdb
 45 48 0 0 0
SMALL
GASTEIGER

@<TRIPOS>ATOM
      1  C1        62.5480   14.0490   31.8260 C.3   1108  GLC1108     0.2695
      2  C2        62.8290   12.8480   32.7160 C.3   1108  GLC1108     0.2406
      3  C3        63.1480   13.3280   34.1270 C.3   1108  GLC1108     0.2198
      4  C4        64.3350   14.2940   34.0640 C.3   1108  GLC1108     0.2144
      5  C5        64.1980   15.3810   32.9720 C.3   1108  GLC1108     0.1835
      6  C6        65.6030   15.8020   32.5420 C.3   1108  GLC1108     0.2142
      7  O2        61.7420   11.9220   32.7350 O.3   1108  GLC1108    -0.2149
      8  O3        63.4920   12.1800   34.8960 O.3   1108  GLC1108    -0.2174
      9  O4        64.5580   14.8780   35.3450 O.3   1108  GLC1108    -0.2176
     10  O5        63.6790   14.8610   31.7610 O.3   1108  GLC1108    -0.3256
     11  O6        65.9280   16.9980   33.1530 O.3   1108  GLC1108    -0.2176
     12  C1        57.9000   16.2640   30.5240 C.3   1109  GLC1109     0.2695
     13  C2        58.1070   14.7480   30.4960 C.3   1109  GLC1109     0.2404
     14  C3        59.2110   14.3470   31.5050 C.3   1109  GLC1109     0.2167
     15  C4        60.4710   15.1650   31.3040 C.3   1109  GLC1109     0.1804
     16  C5        60.1600   16.6640   31.2350 C.3   1109  GLC1109     0.1803
     17  C6        61.3800   17.4960   30.8450 C.3   1109  GLC1109     0.2141
     18  O2        56.8850   14.0850   30.8150 O.3   1109  GLC1109    -0.2149
     19  O3        59.4790   12.9780   31.4370 O.3   1109  GLC1109    -0.2175
     20  O4        61.4390   14.8250   32.3170 O.3   1109  GLC1109    -0.3257
     21  O5        59.1220   16.9160   30.2920 O.3   1109  GLC1109    -0.3257
     22  O6        61.0080   18.8590   30.9770 O.3   1109  GLC1109    -0.2176
     23  C1        53.9850   18.7880   33.1980 C.3   1110  GLC1110     0.2695
     24  C2        53.7210   17.5880   32.2600 C.3   1110  GLC1110     0.2404
     25  C3        54.9640   16.7200   32.1210 C.3   1110  GLC1110     0.2167
     26  C4        56.2170   17.5230   31.7710 C.3   1110  GLC1110     0.1804
     27  C5        56.3670   18.6020   32.8630 C.3   1110  GLC1110     0.1803
     28  C6        57.6310   19.4350   32.5910 C.3   1110  GLC1110     0.2141
     29  O2        52.6090   16.8180   32.6730 O.3   1110  GLC1110    -0.2149
     30  O3        54.7200   15.7440   31.1650 O.3   1110  GLC1110    -0.2175
     31  O4        57.3270   16.6310   31.8050 O.3   1110  GLC1110    -0.3257
     32  O5        55.2030   19.4540   32.9140 O.3   1110  GLC1110    -0.3257
     33  O6        57.7530   20.5800   33.4370 O.3   1110  GLC1110    -0.2176
     34  C1        52.9460   20.3620   38.0910 C.3   1111  GLC1111     0.3023
     35  C2        52.0840   20.7750   36.8850 C.3   1111  GLC1111     0.2433
     36  C3        52.2270   19.8490   35.6580 C.3   1111  GLC1111     0.2168
     37  C4        53.7090   19.4760   35.3840 C.3   1111  GLC1111     0.1804
     38  C5        54.4370   19.2310   36.7180 C.3   1111  GLC1111     0.1804
     39  C6        55.9210   18.9320   36.5280 C.3   1111  GLC1111     0.2141
     40  O1        52.5410   19.0690   38.5770 O.3   1111  GLC1111    -0.1869
     41  O2        50.7370   20.8610   37.2960 O.3   1111  GLC1111    -0.2148
     42  O3        51.4480   20.3690   34.5460 O.3   1111  GLC1111    -0.2175
     43  O4        53.9920   18.3140   34.5370 O.3   1111  GLC1111    -0.3257
     44  O5        54.2890   20.3190   37.6400 O.3   1111  GLC1111    -0.3237
     45  O6        56.4180   18.4320   37.7620 O.3   1111  GLC1111    -0.2176
@<TRIPOS>BOND
     1     1    10    1
     2     1    20    1
     3     1     2    1
     4     2     7    1
     5     2     3    1
     6     3     4    1
     7     3     8    1
     8     4     5    1
     9     4     9    1
    10     5    10    1
    11     5     6    1
    12     6    11    1
    13    12    21    1
    14    12    13    1
    15    12    31    1
    16    13    18    1
    17    13    14    1
    18    14    15    1
    19    14    19    1
    20    15    16    1
    21    15    20    1
    22    16    21    1
    23    16    17    1
    24    17    22    1
    25    23    24    1
    26    23    32    1
    27    23    43    1
    28    24    25    1
    29    24    29    1
    30    25    30    1
    31    25    26    1
    32    26    31    1
    33    26    27    1
    34    27    28    1
    35    27    32    1
    36    28    33    1
    37    34    35    1
    38    34    44    1
    39    34    40    1
    40    35    36    1
    41    35    41    1
    42    36    42    1
    43    36    37    1
    44    37    43    1
    45    37    38    1
    46    38    39    1
    47    38    44    1
    48    39    45    1
