@<TRIPOS>MOLECULE
./coach420/1k7e/ligand.pdb
 17 18 0 0 0
SMALL
GASTEIGER

@<TRIPOS>ATOM
      1  O3        49.4140   29.5250   11.1820 O.co2 401  IAG401     -0.2437
      2  C12       48.2180   29.0230   11.2100 C.2   401  IAG401      0.3865
      3  O2        47.4310   29.3280   10.2450 O.co2 401  IAG401     -0.2437
      4  C11       47.6370   28.1530   12.2900 C.3   401  IAG401      0.2284
      5  N2        48.5140   27.9430   13.3910 N.am  401  IAG401     -0.1929
      6  C10       47.9500   27.4150   14.4670 C.2   401  IAG401      0.2461
      7  O1        46.7960   26.7980   14.6250 O.2   401  IAG401     -0.2730
      8  C9        49.0260   27.6640   15.4500 C.3   401  IAG401      0.1108
      9  C2        50.2880   26.8490   15.1930 C.2   401  IAG401     -0.0095
     10  C1        51.5240   27.4030   15.2790 C.3   401  IAG401      0.1481
     11  N1        52.4570   26.3960   14.9880 N.2   401  IAG401     -0.2659
     12  C7        50.4120   25.4840   14.9980 C.ar  401  IAG401      0.0117
     13  C8        51.7850   25.2200   14.8520 C.ar  401  IAG401      0.0758
     14  C6        52.2270   23.9360   14.6680 C.ar  401  IAG401      0.0187
     15  C5        51.3140   22.8810   14.6360 C.ar  401  IAG401      0.0015
     16  C4        49.9820   23.1440   14.8230 C.ar  401  IAG401      0.0001
     17  C3        49.5250   24.4560   15.0160 C.ar  401  IAG401      0.0009
@<TRIPOS>BOND
     1     1     2   ar
     2     2     3   ar
     3     2     4    1
     4     4     5    1
     5     5     6   am
     6     6     7    2
     7     6     8    1
     8     8     9    1
     9     9    12    2
    10     9    10    1
    11    10    11    1
    12    11    13    2
    13    12    13   ar
    14    12    17   ar
    15    13    14   ar
    16    14    15   ar
    17    15    16   ar
    18    16    17   ar
