@<TRIPOS>MOLECULE
3eah_327_2_ligand
   28    29     1     0     0
SMALL
NO_CHARGES


@<TRIPOS>ATOM
     1 C1          24.4720    13.3000    23.6930 C.3          1 3271864   0.0000
     2 C2          22.1910    14.1300    23.0660 C.2          1 3271864   0.0000
     3 C3          22.7620    11.9870    21.7170 C.2          1 3271864   0.0000
     4 C7          23.9020    11.8430    23.9660 C.3          1 3271864   0.0000
     5 C8          25.5740    13.5820    24.6560 C.3          1 3271864   0.0000
     6 C9          26.5340    14.2930    23.6300 C.3          1 3271864   0.0000
     7 C10         27.4900    15.3060    24.2540 C.3          1 3271864   0.0000
     8 N1          23.2650    14.2290    23.9340 N.2          1 3271864   0.0000
     9 N2          21.1640    14.9360    23.2710 N.pl3        1 3271864   0.0000
    10 C4          22.1640    13.1920    21.8950 C.2          1 3271864   0.0000
    11 S1          21.2590    13.6380    20.4970 S.3          1 3271864   0.0000
    12 C5          21.7460    12.1740    19.7230 C.2          1 3271864   0.0000
    13 C6          22.5120    11.4090    20.4460 C.2          1 3271864   0.0000
    14 O1          23.5840    11.3070    22.6350 O.3          1 3271864   0.0000
    15 H1          24.7972    13.3810    22.7508 H            1 3271864   0.0000
    16 H2          23.0797    11.8873    24.5333 H            1 3271864   0.0000
    17 H3          24.5893    11.2753    24.4191 H            1 3271864   0.0000
    18 H4          25.9714    12.7484    25.0396 H            1 3271864   0.0000
    19 H5          25.2892    14.1879    25.3988 H            1 3271864   0.0000
    20 H6          25.9713    14.7697    22.9546 H            1 3271864   0.0000
    21 H7          27.0788    13.5898    23.1733 H            1 3271864   0.0000
    22 H8          28.0611    15.7096    23.5392 H            1 3271864   0.0000
    23 H9          26.9639    16.0260    24.7065 H            1 3271864   0.0000
    24 H10         28.0714    14.8461    24.9252 H            1 3271864   0.0000
    25 H11         20.3685    14.8960    22.6664 H            1 3271864   0.0000
    26 H12         21.1823    15.5859    24.0308 H            1 3271864   0.0000
    27 H13         21.4628    11.9331    18.7947 H            1 3271864   0.0000
    28 H14         22.8768    10.5281    20.1444 H            1 3271864   0.0000
@<TRIPOS>BOND
     1    1    4       1
     2    1    5       1
     3    1    8       1
     4    2    8       2
     5    2    9       1
     6    2   10       1
     7    3   10       2
     8    3   13       1
     9    3   14       1
    10    4   14       1
    11    5    6       1
    12    6    7       1
    13   10   11       1
    14   11   12       1
    15   12   13       2
    16    1   15       1
    17    4   16       1
    18    4   17       1
    19    5   18       1
    20    5   19       1
    21    6   20       1
    22    6   21       1
    23    7   22       1
    24    7   23       1
    25    7   24       1
    26    9   25       1
    27    9   26       1
    28   12   27       1
    29   13   28       1
@<TRIPOS>SUBSTRUCTURE
     1 3271864     1 GROUP             4 B     327     0 **** 327 B1864
