@<TRIPOS>MOLECULE
2cvz_NDP_3_ligand
   73    77     1     0     0
SMALL
NO_CHARGES


@<TRIPOS>ATOM
     1 PA          35.2460   -34.3440     9.6160 P.3          1 NDP1303   0.0000
     2 O1A         36.2020   -35.2660    10.1680 O.co2        1 NDP1303   0.0000
     3 O2A         35.6170   -33.2310     8.6720 O.co2        1 NDP1303  -1.0000
     4 O5B         34.0860   -35.2740     8.9300 O.3          1 NDP1303   0.0000
     5 C5B         32.9930   -34.6550     8.2410 C.3          1 NDP1303   0.0000
     6 C4B         32.1590   -35.8380     7.7710 C.3          1 NDP1303   0.0000
     7 O4B         31.0550   -35.2660     7.0180 O.3          1 NDP1303   0.0000
     8 C3B         32.8270   -36.8460     6.8930 C.3          1 NDP1303   0.0000
     9 O3B         32.3010   -38.1640     7.1990 O.3          1 NDP1303   0.0000
    10 C2B         32.4460   -36.4640     5.5150 C.3          1 NDP1303   0.0000
    11 O2B         32.5470   -37.4460     4.4810 O.3          1 NDP1303   0.0000
    12 C1B         31.0800   -35.8980     5.7480 C.3          1 NDP1303   0.0000
    13 N9A         30.6680   -34.9440     4.6820 N.pl3        1 NDP1303   0.0000
    14 C8A         31.2500   -33.7020     4.3350 C.2          1 NDP1303   0.0000
    15 N7A         30.5990   -33.1400     3.3350 N.2          1 NDP1303   0.0000
    16 C5A         29.5840   -33.9950     3.0050 C.ar         1 NDP1303   0.0000
    17 C6A         28.5520   -33.9740     2.0390 C.ar         1 NDP1303   0.0000
    18 N6A         28.4370   -32.9430     1.2010 N.pl3        1 NDP1303   0.0000
    19 N1A         27.6800   -35.0110     1.9730 N.ar         1 NDP1303   0.0000
    20 C2A         27.8010   -36.0550     2.8250 C.ar         1 NDP1303   0.0000
    21 N3A         28.7380   -36.1720     3.7720 N.ar         1 NDP1303   0.0000
    22 C4A         29.6100   -35.0970     3.8130 C.ar         1 NDP1303   0.0000
    23 O3          34.3960   -33.6810    10.7620 O.3          1 NDP1303   0.0000
    24 PN          34.3150   -33.7700    12.3550 P.3          1 NDP1303   0.0000
    25 O1N         35.6210   -33.3470    12.8700 O.co2        1 NDP1303   0.0000
    26 O2N         33.8050   -35.1590    12.6050 O.co2        1 NDP1303  -1.0000
    27 O5D         33.1150   -32.7570    12.6410 O.3          1 NDP1303   0.0000
    28 C5D         31.7410   -33.0320    12.2130 C.3          1 NDP1303   0.0000
    29 C4D         30.8060   -32.1360    13.0820 C.3          1 NDP1303   0.0000
    30 O4D         31.1300   -32.3770    14.4490 O.3          1 NDP1303   0.0000
    31 C3D         31.0700   -30.6430    12.8620 C.3          1 NDP1303   0.0000
    32 O3D         29.8190   -29.9410    12.8800 O.3          1 NDP1303   0.0000
    33 C2D         32.0050   -30.2580    13.9780 C.3          1 NDP1303   0.0000
    34 O2D         31.9720   -28.8540    14.1660 O.3          1 NDP1303   0.0000
    35 C1D         31.3500   -31.1360    15.1250 C.3          1 NDP1303   0.0000
    36 N1N         32.2460   -31.4170    16.2890 N.ar         1 NDP1303   1.0000
    37 C2N         33.6070   -31.7420    16.0300 C.ar         1 NDP1303   0.0000
    38 C3N         34.4340   -32.0220    17.1930 C.ar         1 NDP1303   0.0000
    39 C7N         35.8470   -32.3760    17.0210 C.2          1 NDP1303   0.0000
    40 O7N         36.6840   -32.3150    17.9450 O.2          1 NDP1303   0.0000
    41 N7N         36.2970   -32.8060    15.8270 N.am         1 NDP1303   0.0000
    42 C4N         33.8550   -31.9560    18.4680 C.ar         1 NDP1303   0.0000
    43 C5N         32.5450   -31.6410    18.6860 C.ar         1 NDP1303   0.0000
    44 C6N         31.7380   -31.3720    17.5990 C.ar         1 NDP1303   0.0000
    45 P2B         33.8770   -37.8420     3.7820 P.3          1 NDP1303   0.0000
    46 O1X         33.4170   -38.3420     2.4710 O.co2        1 NDP1303   0.0000
    47 O2X         34.5570   -38.8760     4.6090 O.co2        1 NDP1303  -1.0000
    48 O3X         34.7640   -36.6080     3.6260 O.co2        1 NDP1303  -1.0000
    49 H5B1        33.3187   -34.1155     7.4645 H            1 NDP1303   0.0000
    50 H5B2        32.4673   -34.0686     8.8573 H            1 NDP1303   0.0000
    51 H4B         31.7896   -36.3074     8.5730 H            1 NDP1303   0.0000
    52 H3B         33.8198   -36.8207     7.0100 H            1 NDP1303   0.0000
    53 H5          32.3316   -38.7340     6.3779 H            1 NDP1303   0.0000
    54 H2B         33.0360   -35.7011     5.2507 H            1 NDP1303   0.0000
    55 H1B         30.4258   -36.6542     5.7615 H            1 NDP1303   0.0000
    56 H8A         32.0480   -33.3036     4.7873 H            1 NDP1303   0.0000
    57 H6A1        27.7056   -32.9320     0.5192 H            1 NDP1303   0.0000
    58 H6A2        29.0822   -32.1808     1.2545 H            1 NDP1303   0.0000
    59 H2A         27.1372   -36.7980     2.7399 H            1 NDP1303   0.0000
    60 H5D1        31.5229   -33.9973    12.3570 H            1 NDP1303   0.0000
    61 H5D2        31.6309   -32.8062    11.2451 H            1 NDP1303   0.0000
    62 H4D         29.8462   -32.3533    12.9045 H            1 NDP1303   0.0000
    63 H3D         31.5217   -30.5060    11.9804 H            1 NDP1303   0.0000
    64 H16         29.2301   -30.2906    12.1514 H            1 NDP1303   0.0000
    65 H2D         32.9357   -30.5674    13.7829 H            1 NDP1303   0.0000
    66 H18         32.1588   -28.6416    15.1252 H            1 NDP1303   0.0000
    67 H1D         30.4848   -30.7374    15.4291 H            1 NDP1303   0.0000
    68 H2N         33.9741   -31.7759    15.1005 H            1 NDP1303   0.0000
    69 H7N1        37.2609   -33.0465    15.7131 H            1 NDP1303   0.0000
    70 H7N2        35.6673   -32.8848    15.0542 H            1 NDP1303   0.0000
    71 H4N         34.4330   -32.1502    19.2606 H            1 NDP1303   0.0000
    72 H5N         32.1770   -31.6058    19.6152 H            1 NDP1303   0.0000
    73 H6N         30.7761   -31.1413    17.7458 H            1 NDP1303   0.0000
@<TRIPOS>BOND
     1    1    2      ar
     2    1    3      ar
     3    1    4       1
     4    1   23       1
     5    4    5       1
     6    5    6       1
     7    6    7       1
     8    6    8       1
     9    7   12       1
    10    8    9       1
    11    8   10       1
    12   10   11       1
    13   10   12       1
    14   11   45       1
    15   12   13       1
    16   13   14       1
    17   13   22       1
    18   14   15       2
    19   15   16       1
    20   16   17      ar
    21   16   22      ar
    22   17   18       1
    23   17   19      ar
    24   19   20      ar
    25   20   21      ar
    26   21   22      ar
    27   23   24       1
    28   24   25      ar
    29   24   26      ar
    30   24   27       1
    31   27   28       1
    32   28   29       1
    33   29   30       1
    34   29   31       1
    35   30   35       1
    36   31   32       1
    37   31   33       1
    38   33   34       1
    39   33   35       1
    40   35   36       1
    41   36   37      ar
    42   36   44      ar
    43   37   38      ar
    44   38   39       1
    45   38   42      ar
    46   39   40       2
    47   39   41      am
    48   42   43      ar
    49   43   44      ar
    50   45   46      ar
    51   45   47      ar
    52   45   48      ar
    53   43   72       1
    54    5   49       1
    55    5   50       1
    56    6   51       1
    57    8   52       1
    58    9   53       1
    59   10   54       1
    60   12   55       1
    61   14   56       1
    62   18   57       1
    63   18   58       1
    64   20   59       1
    65   44   73       1
    66   28   60       1
    67   28   61       1
    68   29   62       1
    69   31   63       1
    70   32   64       1
    71   33   65       1
    72   34   66       1
    73   35   67       1
    74   37   68       1
    75   41   69       1
    76   41   70       1
    77   42   71       1
@<TRIPOS>SUBSTRUCTURE
     1 NDP1303     1 GROUP             4 C     NDP     0 **** NDP C1303
