@<TRIPOS>MOLECULE
4k81_GTP_1_ligand
   44    46     1     0     0
SMALL
NO_CHARGES


@<TRIPOS>ATOM
     1 PG          -7.9930    25.7090   -23.2200 P.3          1 GTP202   0.0000
     2 O1G         -9.0250    26.5290   -22.4790 O.co2        1 GTP202   0.0000
     3 O2G         -7.8970    24.2960   -22.6680 O.co2        1 GTP202  -1.0000
     4 O3G         -6.6770    26.4700   -23.3720 O.co2        1 GTP202  -1.0000
     5 O3B         -8.5730    25.4940   -24.7300 O.3          1 GTP202   0.0000
     6 PB          -7.8730    24.6000   -25.8770 P.3          1 GTP202   0.0000
     7 O1B         -6.9110    25.4640   -26.6640 O.co2        1 GTP202   0.0000
     8 O2B         -7.3060    23.3570   -25.2420 O.co2        1 GTP202  -1.0000
     9 O3A         -9.0720    24.2540   -26.8690 O.3          1 GTP202   0.0000
    10 PA          -9.6440    22.7850   -27.1380 P.3          1 GTP202   0.0000
    11 O1A         -8.5340    21.8400   -27.5020 O.co2        1 GTP202   0.0000
    12 O2A        -10.6160    22.3570   -26.0630 O.co2        1 GTP202  -1.0000
    13 O5'        -10.4920    23.1490   -28.4510 O.3          1 GTP202   0.0000
    14 C5'        -11.5610    24.0990   -28.3080 C.3          1 GTP202   0.0000
    15 C4'        -12.6680    23.8370   -29.3310 C.3          1 GTP202   0.0000
    16 O4'        -12.1700    23.9690   -30.6610 O.3          1 GTP202   0.0000
    17 C3'        -13.2320    22.4350   -29.2160 C.3          1 GTP202   0.0000
    18 O3'        -14.6190    22.4820   -29.5210 O.3          1 GTP202   0.0000
    19 C2'        -12.5300    21.6850   -30.3050 C.3          1 GTP202   0.0000
    20 O2'        -13.3420    20.6310   -30.7920 O.3          1 GTP202   0.0000
    21 C1'        -12.2940    22.7370   -31.3580 C.3          1 GTP202   0.0000
    22 N9         -11.0880    22.3430   -32.1210 N.pl3        1 GTP202   0.0000
    23 C8          -9.8770    21.9770   -31.6460 C.2          1 GTP202   0.0000
    24 N7          -9.0360    21.6330   -32.6500 N.2          1 GTP202   0.0000
    25 C5          -9.7110    21.7960   -33.7910 C.2          1 GTP202   0.0000
    26 C6          -9.4180    21.6220   -35.2310 C.2          1 GTP202   0.0000
    27 O6          -8.2970    21.2450   -35.6440 O.2          1 GTP202   0.0000
    28 N1         -10.4010    21.8870   -36.0850 N.pl3        1 GTP202   0.0000
    29 C2         -11.6160    22.3080   -35.6990 C.2          1 GTP202   0.0000
    30 N2         -12.5210    22.5530   -36.6570 N.pl3        1 GTP202   0.0000
    31 N3         -11.9720    22.4920   -34.4020 N.2          1 GTP202   0.0000
    32 C4         -11.0610    22.2520   -33.4350 C.2          1 GTP202   0.0000
    33 H5'1       -11.1996    25.0211   -28.4462 H            1 GTP202   0.0000
    34 H5'2       -11.9430    24.0252   -27.3868 H            1 GTP202   0.0000
    35 H4'        -13.4051    24.4981   -29.1911 H            1 GTP202   0.0000
    36 H3'        -13.0602    22.0353   -28.3156 H            1 GTP202   0.0000
    37 H5         -15.0073    21.5632   -29.4496 H            1 GTP202   0.0000
    38 H2'        -11.6581    21.3257   -29.9722 H            1 GTP202   0.0000
    39 H7         -13.1611    19.8003   -30.2655 H            1 GTP202   0.0000
    40 H1'        -13.0813    22.7778   -31.9732 H            1 GTP202   0.0000
    41 H9          -9.6330    21.9621   -30.6764 H            1 GTP202   0.0000
    42 H10        -10.2273    21.7670   -37.0625 H            1 GTP202   0.0000
    43 H11        -13.4374    22.8681   -36.4103 H            1 GTP202   0.0000
    44 H12        -12.2797    22.4207   -37.6184 H            1 GTP202   0.0000
@<TRIPOS>BOND
     1    1    2      ar
     2    1    3      ar
     3    1    4      ar
     4    1    5       1
     5    5    6       1
     6    6    7      ar
     7    6    8      ar
     8    6    9       1
     9    9   10       1
    10   10   11      ar
    11   10   12      ar
    12   10   13       1
    13   13   14       1
    14   14   15       1
    15   15   16       1
    16   15   17       1
    17   16   21       1
    18   17   18       1
    19   17   19       1
    20   19   20       1
    21   19   21       1
    22   21   22       1
    23   22   23       1
    24   22   32       1
    25   23   24       2
    26   24   25       1
    27   25   26       1
    28   25   32       2
    29   26   27       2
    30   26   28       1
    31   28   29       1
    32   29   30       1
    33   29   31       2
    34   31   32       1
    35   30   44       1
    36   30   43       1
    37   28   42       1
    38   23   41       1
    39   14   33       1
    40   14   34       1
    41   15   35       1
    42   17   36       1
    43   18   37       1
    44   19   38       1
    45   20   39       1
    46   21   40       1
@<TRIPOS>SUBSTRUCTURE
     1 GTP202      1 GROUP             4 B     GTP     0 **** GTP B 202
