@<TRIPOS>MOLECULE
3pfh_T3Q_2_ligand
   61    63     1     0     0
SMALL
NO_CHARGES


@<TRIPOS>ATOM
     1 O4         -42.3630     8.7960     3.1490 O.2          1 T3Q301   0.0000
     2 C4         -42.5460     7.6430     3.4610 C.2          1 T3Q301   0.0000
     3 N3         -42.6130     6.7180     2.4580 N.pl3        1 T3Q301   0.0000
     4 C2         -42.8330     5.4530     2.7800 C.2          1 T3Q301   0.0000
     5 O2         -42.8860     4.6730     1.8620 O.2          1 T3Q301   0.0000
     6 C5         -42.7520     7.3320     4.8450 C.2          1 T3Q301   0.0000
     7 C5M        -42.6920     8.3860     5.9350 C.3          1 T3Q301   0.0000
     8 C6         -42.9530     6.0100     5.1260 C.2          1 T3Q301   0.0000
     9 N1         -42.9610     5.1170     4.0780 N.pl3        1 T3Q301   0.0000
    10 C1'        -43.2670     3.7010     4.3490 C.3          1 T3Q301   0.0000
    11 O4'        -44.0390     3.7590     5.5600 O.3          1 T3Q301   0.0000
    12 C2'        -41.9240     3.0580     4.7150 C.3          1 T3Q301   0.0000
    13 C3'        -42.3620     2.0380     5.7890 C.3          1 T3Q301   0.0000
    14 O3'        -42.8820     0.8770     5.1400 O.3          1 T3Q301   0.0000
    15 C4'        -43.4720     2.8340     6.5280 C.3          1 T3Q301   0.0000
    16 C5'        -42.9800     3.5900     7.7830 C.3          1 T3Q301   0.0000
    17 O5'        -42.2740     2.6250     8.5530 O.3          1 T3Q301   0.0000
    18 PA         -42.6480     2.7850    10.1010 P.3          1 T3Q301   0.0000
    19 O1A        -42.6560     4.2410    10.5010 O.co2        1 T3Q301   0.0000
    20 O2A        -41.7210     1.7570    10.8420 O.co2        1 T3Q301  -1.0000
    21 O3A        -44.1500     2.2340    10.0690 O.3          1 T3Q301   0.0000
    22 PB         -45.4860     2.7590    10.7620 P.3          1 T3Q301   0.0000
    23 O1B        -46.1160     3.7340     9.8760 O.co2        1 T3Q301   0.0000
    24 O2B        -45.2160     3.3070    12.2310 O.co2        1 T3Q301  -1.0000
    25 O3B        -46.3820     1.4300    10.8590 O.3          1 T3Q301   0.0000
    26 O4Q        -48.6210    -1.9440    12.3570 O.3          1 T3Q301   0.0000
    27 C4Q        -48.0790    -1.3740    11.1520 C.3          1 T3Q301   0.0000
    28 C5Q        -46.5530    -1.2250    11.1640 C.3          1 T3Q301   0.0000
    29 O5Q        -46.1410    -0.6510     9.9290 O.3          1 T3Q301   0.0000
    30 C6Q        -45.9390    -2.6500    11.1710 C.3          1 T3Q301   0.0000
    31 C3Q        -48.8290    -0.0460    10.9420 C.3          1 T3Q301   0.0000
    32 N3Q        -50.3120    -0.1850    10.8680 N.4          1 T3Q301   1.0000
    33 C2Q        -48.2950     0.5290     9.6180 C.3          1 T3Q301   0.0000
    34 O2Q        -48.6910     1.9090     9.4980 O.3          1 T3Q301   0.0000
    35 C1Q        -46.7700     0.6140     9.6980 C.3          1 T3Q301   0.0000
    36 H1         -42.4985     6.9902     1.5026 H            1 T3Q301   0.0000
    37 H5M1       -42.8632     7.9579     6.8224 H            1 T3Q301   0.0000
    38 H5M2       -41.7865     8.8104     5.9388 H            1 T3Q301   0.0000
    39 H5M3       -43.3867     9.0842     5.7621 H            1 T3Q301   0.0000
    40 H5         -43.0905     5.6997     6.0666 H            1 T3Q301   0.0000
    41 H1'        -43.7382     3.2422     3.5957 H            1 T3Q301   0.0000
    42 H2'1       -41.2851     3.7309     5.0877 H            1 T3Q301   0.0000
    43 H2'2       -41.5081     2.6043     3.9268 H            1 T3Q301   0.0000
    44 H3'        -41.6074     1.8067     6.4030 H            1 T3Q301   0.0000
    45 H10        -43.2917     1.1389     4.2662 H            1 T3Q301   0.0000
    46 H4'        -44.1868     2.1927     6.8068 H            1 T3Q301   0.0000
    47 H5'1       -43.7558     3.9509     8.3005 H            1 T3Q301   0.0000
    48 H5'2       -42.3739     4.3418     7.5233 H            1 T3Q301   0.0000
    49 H4Q        -49.1056    -2.7906    12.1367 H            1 T3Q301   0.0000
    50 H15        -48.3188    -1.9811    10.3944 H            1 T3Q301   0.0000
    51 H5Q        -46.2407    -0.6843    11.9451 H            1 T3Q301   0.0000
    52 H6Q1       -44.9413    -2.5830    11.1789 H            1 T3Q301   0.0000
    53 H6Q2       -46.2465    -3.1415    11.9858 H            1 T3Q301   0.0000
    54 H6Q3       -46.2335    -3.1439    10.3528 H            1 T3Q301   0.0000
    55 H3Q        -48.5972     0.5803    11.6863 H            1 T3Q301   0.0000
    56 H3Q1       -50.7009    -0.1008    11.7854 H            1 T3Q301   0.0000
    57 H3Q2       -50.6852     0.5331    10.2806 H            1 T3Q301   0.0000
    58 H2Q        -48.5948    -0.0117     8.8320 H            1 T3Q301   0.0000
    59 H24        -47.9895     2.4937     9.9054 H            1 T3Q301   0.0000
    60 H1Q        -46.4092     1.0237     8.8602 H            1 T3Q301   0.0000
    61 H3Q3       -50.5443    -1.0805    10.4884 H            1 T3Q301   0.0000
@<TRIPOS>BOND
     1    1    2       2
     2    2    3       1
     3    2    6       1
     4    3    4       1
     5    4    5       2
     6    4    9       1
     7    6    7       1
     8    6    8       2
     9    8    9       1
    10    9   10       1
    11   10   11       1
    12   10   12       1
    13   11   15       1
    14   12   13       1
    15   13   14       1
    16   13   15       1
    17   15   16       1
    18   16   17       1
    19   17   18       1
    20   18   19      ar
    21   18   20      ar
    22   18   21       1
    23   21   22       1
    24   22   23      ar
    25   22   24      ar
    26   22   25       1
    27   25   35       1
    28   26   27       1
    29   27   28       1
    30   27   31       1
    31   28   29       1
    32   28   30       1
    33   29   35       1
    34   31   32       1
    35   31   33       1
    36   33   34       1
    37   33   35       1
    38    3   36       1
    39    7   37       1
    40    7   38       1
    41    7   39       1
    42    8   40       1
    43   10   41       1
    44   12   42       1
    45   12   43       1
    46   13   44       1
    47   14   45       1
    48   15   46       1
    49   16   47       1
    50   16   48       1
    51   35   60       1
    52   34   59       1
    53   26   49       1
    54   27   50       1
    55   28   51       1
    56   30   52       1
    57   30   53       1
    58   30   54       1
    59   31   55       1
    60   32   56       1
    61   32   57       1
    62   33   58       1
    63   32   61       1
@<TRIPOS>SUBSTRUCTURE
     1 T3Q301      1 GROUP             4 D     T3Q     0 **** T3Q D 301
