@<TRIPOS>MOLECULE
1xp8_AGS_1_ligand
   43    45     1     0     0
SMALL
NO_CHARGES


@<TRIPOS>ATOM
     1 PG          18.5510    14.8800     7.9480 P.3          1 AGS400   0.0000
     2 S1G         19.1390    14.2120     6.2290 S.2          1 AGS400   0.0000
     3 O2G         17.5050    13.9760     8.4790 O.co2        1 AGS400  -1.0000
     4 O3G         19.7330    15.1560     8.7960 O.co2        1 AGS400  -1.0000
     5 PB          18.6400    17.6900     7.6230 P.3          1 AGS400   0.0000
     6 O1B         17.6960    18.7390     8.0700 O.co2        1 AGS400   0.0000
     7 O2B         19.9070    17.5310     8.3710 O.co2        1 AGS400  -1.0000
     8 O3B         17.8510    16.2860     7.5850 O.3          1 AGS400   0.0000
     9 PA          20.4720    18.4010     5.5870 P.3          1 AGS400   0.0000
    10 O1A         21.2130    17.1820     5.9840 O.co2        1 AGS400   0.0000
    11 O2A         20.5270    19.7010     6.2910 O.co2        1 AGS400  -1.0000
    12 O3A         18.9990    17.9560     6.0730 O.3          1 AGS400   0.0000
    13 O5'         20.0510    18.4170     4.0310 O.3          1 AGS400   0.0000
    14 C5'         19.2580    19.4800     3.4940 C.3          1 AGS400   0.0000
    15 C4'         19.6850    19.8210     2.0650 C.3          1 AGS400   0.0000
    16 O4'         21.0540    20.2600     1.9910 O.3          1 AGS400   0.0000
    17 C3'         19.5850    18.6460     1.0930 C.3          1 AGS400   0.0000
    18 O3'         18.2510    18.4940     0.5990 O.3          1 AGS400   0.0000
    19 C2'         20.4750    19.1820    -0.0250 C.3          1 AGS400   0.0000
    20 O2'         19.8500    20.2620    -0.7240 O.3          1 AGS400   0.0000
    21 C1'         21.6510    19.7080     0.8010 C.3          1 AGS400   0.0000
    22 N9          22.5630    18.6120     1.2080 N.pl3        1 AGS400   0.0000
    23 C8          22.5260    17.9430     2.3590 C.2          1 AGS400   0.0000
    24 N7          23.5270    17.0670     2.4050 N.2          1 AGS400   0.0000
    25 C5          24.2110    17.1740     1.2710 C.ar         1 AGS400   0.0000
    26 C6          25.3330    16.5400     0.7460 C.ar         1 AGS400   0.0000
    27 N6          25.9580    15.5880     1.4330 N.pl3        1 AGS400   0.0000
    28 N1          25.7770    16.9000    -0.4680 N.ar         1 AGS400   0.0000
    29 C2          25.1680    17.8410    -1.1700 C.ar         1 AGS400   0.0000
    30 N3          24.1000    18.4630    -0.7000 N.ar         1 AGS400   0.0000
    31 C4          23.5980    18.1580     0.5060 C.ar         1 AGS400   0.0000
    32 H5'1        19.3667    20.2908     4.0692 H            1 AGS400   0.0000
    33 H5'2        18.2978    19.2006     3.4897 H            1 AGS400   0.0000
    34 H4'         19.0992    20.5585     1.7288 H            1 AGS400   0.0000
    35 H3'         19.9413    17.7985     1.4864 H            1 AGS400   0.0000
    36 H5          18.2513    18.5889    -0.3965 H            1 AGS400   0.0000
    37 H2'         20.7598    18.4548    -0.6496 H            1 AGS400   0.0000
    38 H7          20.4167    21.0822    -0.6455 H            1 AGS400   0.0000
    39 H1'         22.1494    20.4130     0.2965 H            1 AGS400   0.0000
    40 H9          21.8474    18.0786     3.0809 H            1 AGS400   0.0000
    41 H10         26.7634    15.1390     1.0461 H            1 AGS400   0.0000
    42 H11         25.6225    15.3212     2.3365 H            1 AGS400   0.0000
    43 H12         25.5216    18.0865    -2.0726 H            1 AGS400   0.0000
@<TRIPOS>BOND
     1    1    2       2
     2    1    3      ar
     3    1    4      ar
     4    1    8       1
     5    5    6      ar
     6    5    7      ar
     7    5    8       1
     8    5   12       1
     9    9   10      ar
    10    9   11      ar
    11    9   12       1
    12    9   13       1
    13   13   14       1
    14   14   15       1
    15   15   16       1
    16   15   17       1
    17   16   21       1
    18   17   18       1
    19   17   19       1
    20   19   20       1
    21   19   21       1
    22   21   22       1
    23   22   23       1
    24   22   31       1
    25   23   24       2
    26   24   25       1
    27   25   26      ar
    28   25   31      ar
    29   26   27       1
    30   26   28      ar
    31   28   29      ar
    32   29   30      ar
    33   30   31      ar
    34   29   43       1
    35   27   42       1
    36   27   41       1
    37   23   40       1
    38   14   32       1
    39   14   33       1
    40   15   34       1
    41   17   35       1
    42   18   36       1
    43   19   37       1
    44   20   38       1
    45   21   39       1
@<TRIPOS>SUBSTRUCTURE
     1 AGS400      1 GROUP             4 A     AGS     0 **** AGS A 400
