@<TRIPOS>MOLECULE
3lby_SAH_1_ligand
   46    48     1     0     0
SMALL
NO_CHARGES


@<TRIPOS>ATOM
     1 N           14.6990    44.5170    -1.0800 N.4          1 SAH4630   1.0000
     2 CA          14.5150    43.0970    -0.6800 C.3          1 SAH4630   0.0000
     3 CB          13.4510    42.4200    -1.5390 C.3          1 SAH4630   0.0000
     4 CG          13.0590    43.1470    -2.8200 C.3          1 SAH4630   0.0000
     5 SD          12.3060    41.9980    -3.9970 S.3          1 SAH4630   0.0000
     6 C           15.8340    42.3240    -0.6970 C.2          1 SAH4630   0.0000
     7 O           16.9110    42.9120    -0.7830 O.co2        1 SAH4630   0.0000
     8 OXT         15.8540    41.0970    -0.6060 O.co2        1 SAH4630  -1.0000
     9 C5'         10.8830    43.0760    -4.3400 C.3          1 SAH4630   0.0000
    10 C4'         10.1270    42.5770    -5.5670 C.3          1 SAH4630   0.0000
    11 O4'          8.8460    43.1680    -5.6310 O.3          1 SAH4630   0.0000
    12 C3'         10.7970    42.8680    -6.9160 C.3          1 SAH4630   0.0000
    13 O3'         10.9690    41.6530    -7.6210 O.3          1 SAH4630   0.0000
    14 C2'          9.7720    43.7090    -7.6730 C.3          1 SAH4630   0.0000
    15 O2'          9.7490    43.4310    -9.0530 O.3          1 SAH4630   0.0000
    16 C1'          8.4890    43.2490    -7.0020 C.3          1 SAH4630   0.0000
    17 N9           7.3580    44.1710    -7.1610 N.pl3        1 SAH4630   0.0000
    18 C8           7.3870    45.5370    -7.3150 C.2          1 SAH4630   0.0000
    19 N7           6.1090    45.9610    -7.4000 N.2          1 SAH4630   0.0000
    20 C5           5.2730    44.9030    -7.3010 C.ar         1 SAH4630   0.0000
    21 C6           3.8900    44.7750    -7.3160 C.ar         1 SAH4630   0.0000
    22 N6           3.1030    45.8430    -7.4560 N.pl3        1 SAH4630   0.0000
    23 N1           3.3310    43.5230    -7.1680 N.ar         1 SAH4630   0.0000
    24 C2           4.1250    42.4030    -7.0160 C.ar         1 SAH4630   0.0000
    25 N3           5.4950    42.5430    -7.0030 N.ar         1 SAH4630   0.0000
    26 C4           6.0550    43.7680    -7.1400 C.ar         1 SAH4630   0.0000
    27 H1          15.3997    44.9375    -0.5037 H            1 SAH4630   0.0000
    28 H2          14.9853    44.5593    -2.0372 H            1 SAH4630   0.0000
    29 HA          14.1814    43.0947     0.2627 H            1 SAH4630   0.0000
    30 HB1         12.6273    42.3188    -0.9812 H            1 SAH4630   0.0000
    31 HB2         13.7942    41.5160    -1.7939 H            1 SAH4630   0.0000
    32 HG1         13.8757    43.5514    -3.2317 H            1 SAH4630   0.0000
    33 HG2         12.4036    43.8697    -2.6006 H            1 SAH4630   0.0000
    34 H5'1        11.2070    44.0071    -4.5078 H            1 SAH4630   0.0000
    35 H5'2        10.2692    43.0738    -3.5505 H            1 SAH4630   0.0000
    36 H4'         10.0112    41.5874    -5.4821 H            1 SAH4630   0.0000
    37 H3'         11.6629    43.3550    -6.8015 H            1 SAH4630   0.0000
    38 H12         10.0772    41.2272    -7.7739 H            1 SAH4630   0.0000
    39 H2'          9.9257    44.6838    -7.5112 H            1 SAH4630   0.0000
    40 H14          9.0910    42.7003    -9.2349 H            1 SAH4630   0.0000
    41 H1'          8.2366    42.3424    -7.3401 H            1 SAH4630   0.0000
    42 H16          8.2050    46.1108    -7.3564 H            1 SAH4630   0.0000
    43 H17          2.1090    45.7339    -7.4648 H            1 SAH4630   0.0000
    44 H18          3.5070    46.7527    -7.5521 H            1 SAH4630   0.0000
    45 H19          3.7090    41.4991    -6.9163 H            1 SAH4630   0.0000
    46 H20         13.8358    45.0093    -0.9682 H            1 SAH4630   0.0000
@<TRIPOS>BOND
     1    1    2       1
     2    2    3       1
     3    2    6       1
     4    3    4       1
     5    4    5       1
     6    5    9       1
     7    6    7      ar
     8    6    8      ar
     9    9   10       1
    10   10   11       1
    11   10   12       1
    12   11   16       1
    13   12   13       1
    14   12   14       1
    15   14   15       1
    16   14   16       1
    17   16   17       1
    18   17   18       1
    19   17   26       1
    20   18   19       2
    21   19   20       1
    22   20   21      ar
    23   20   26      ar
    24   21   22       1
    25   21   23      ar
    26   23   24      ar
    27   24   25      ar
    28   25   26      ar
    29    1   27       1
    30    1   28       1
    31    2   29       1
    32    3   30       1
    33    3   31       1
    34    4   32       1
    35    4   33       1
    36    1   46       1
    37    9   34       1
    38    9   35       1
    39   10   36       1
    40   12   37       1
    41   13   38       1
    42   14   39       1
    43   15   40       1
    44   16   41       1
    45   18   42       1
    46   22   43       1
    47   22   44       1
    48   24   45       1
@<TRIPOS>SUBSTRUCTURE
     1 SAH4630     1 GROUP             4 A     SAH     0 **** SAH A4630
