@<TRIPOS>MOLECULE
4a62_ANP_2_ligand
   44    46     1     0     0
SMALL
NO_CHARGES


@<TRIPOS>ATOM
     1 PG         -74.0440    20.5540   -91.4610 P.3          1 ANP500   0.0000
     2 O1G        -73.3780    21.9000   -91.5920 O.co2        1 ANP500   0.0000
     3 O2G        -73.9310    19.6980   -92.6930 O.co2        1 ANP500  -1.0000
     4 O3G        -75.4550    20.5540   -90.9210 O.co2        1 ANP500  -1.0000
     5 PB         -71.7800    18.7850   -90.3140 P.3          1 ANP500   0.0000
     6 O1B        -71.5010    18.3190   -91.6960 O.co2        1 ANP500   0.0000
     7 O2B        -70.6170    19.3470   -89.5310 O.co2        1 ANP500  -1.0000
     8 N3B        -73.1420    19.8470   -90.1550 N.3          1 ANP500   0.0000
     9 PA         -71.6940    16.0150   -89.6680 P.3          1 ANP500   0.0000
    10 O1A        -70.2040    15.9670   -89.5570 O.co2        1 ANP500   0.0000
    11 O2A        -72.3530    15.3890   -90.8810 O.co2        1 ANP500  -1.0000
    12 O3A        -72.2740    17.5040   -89.4890 O.3          1 ANP500   0.0000
    13 O5'        -72.3910    15.2910   -88.4010 O.3          1 ANP500   0.0000
    14 C5'        -72.1860    15.7580   -87.0840 C.3          1 ANP500   0.0000
    15 C4'        -73.1920    15.1390   -86.1260 C.3          1 ANP500   0.0000
    16 O4'        -73.4120    13.7360   -86.3440 O.3          1 ANP500   0.0000
    17 C3'        -72.6980    15.3110   -84.7000 C.3          1 ANP500   0.0000
    18 O3'        -73.4620    16.3780   -84.1200 O.3          1 ANP500   0.0000
    19 C2'        -72.8980    13.9610   -84.0220 C.3          1 ANP500   0.0000
    20 O2'        -73.9030    14.0390   -82.9920 O.3          1 ANP500   0.0000
    21 C1'        -73.4130    13.0140   -85.0990 C.3          1 ANP500   0.0000
    22 N9         -72.5610    11.8110   -85.1850 N.pl3        1 ANP500   0.0000
    23 C8         -71.3170    11.7660   -85.7070 C.2          1 ANP500   0.0000
    24 N7         -70.8220    10.5050   -85.6440 N.2          1 ANP500   0.0000
    25 C5         -71.7580     9.7200   -85.0790 C.ar         1 ANP500   0.0000
    26 C6         -71.8630     8.2910   -84.7210 C.ar         1 ANP500   0.0000
    27 N6         -70.8400     7.4440   -84.9710 N.pl3        1 ANP500   0.0000
    28 N1         -73.0080     7.8690   -84.1430 N.ar         1 ANP500   0.0000
    29 C2         -74.0260     8.7170   -83.8990 C.ar         1 ANP500   0.0000
    30 N3         -73.9910    10.0330   -84.2110 N.ar         1 ANP500   0.0000
    31 C4         -72.9070    10.5830   -84.7900 C.ar         1 ANP500   0.0000
    32 H3B        -72.8091    20.6214   -89.6170 H            1 ANP500   0.0000
    33 H5'1       -72.2892    16.7526   -87.0695 H            1 ANP500   0.0000
    34 H5'2       -71.2616    15.5145   -86.7904 H            1 ANP500   0.0000
    35 H4'        -74.0640    15.6189   -86.2230 H            1 ANP500   0.0000
    36 H3'        -71.7270    15.5500   -84.7027 H            1 ANP500   0.0000
    37 H6         -72.9085    16.8492   -83.4332 H            1 ANP500   0.0000
    38 H2'        -72.0344    13.6266   -83.6447 H            1 ANP500   0.0000
    39 H8         -74.2577    14.9727   -82.9424 H            1 ANP500   0.0000
    40 H1'        -74.3489    12.7402   -84.8773 H            1 ANP500   0.0000
    41 H10        -70.8291    12.5519   -86.0867 H            1 ANP500   0.0000
    42 H11        -70.9193     6.4779   -84.7254 H            1 ANP500   0.0000
    43 H12        -70.0037     7.7834   -85.4016 H            1 ANP500   0.0000
    44 H13        -74.8507     8.3548   -83.4645 H            1 ANP500   0.0000
@<TRIPOS>BOND
     1    1    2      ar
     2    1    3      ar
     3    1    4      ar
     4    1    8       1
     5    5    6      ar
     6    5    7      ar
     7    5    8       1
     8    5   12       1
     9    9   10      ar
    10    9   11      ar
    11    9   12       1
    12    9   13       1
    13   13   14       1
    14   14   15       1
    15   15   16       1
    16   15   17       1
    17   16   21       1
    18   17   18       1
    19   17   19       1
    20   19   20       1
    21   19   21       1
    22   21   22       1
    23   22   23       1
    24   22   31       1
    25   23   24       2
    26   24   25       1
    27   25   26      ar
    28   25   31      ar
    29   26   27       1
    30   26   28      ar
    31   28   29      ar
    32   29   30      ar
    33   30   31      ar
    34   29   44       1
    35   27   43       1
    36   27   42       1
    37    8   32       1
    38   23   41       1
    39   14   33       1
    40   14   34       1
    41   15   35       1
    42   17   36       1
    43   18   37       1
    44   19   38       1
    45   20   39       1
    46   21   40       1
@<TRIPOS>SUBSTRUCTURE
     1 ANP500      1 GROUP             4 B     ANP     0 **** ANP B 500
