@<TRIPOS>MOLECULE
5bt9_NAP_3_ligand
   73    77     1     0     0
SMALL
NO_CHARGES


@<TRIPOS>ATOM
     1 PA          22.2960   -11.7950     0.7080 P.3          1 NAP300   0.0000
     2 O1A         23.7750   -11.9650     0.6040 O.co2        1 NAP300   0.0000
     3 O2A         21.6240   -13.1170     0.6900 O.co2        1 NAP300  -1.0000
     4 O5B         21.7270   -10.8640    -0.5000 O.3          1 NAP300   0.0000
     5 C5B         21.9790    -9.5080    -0.4470 C.3          1 NAP300   0.0000
     6 C4B         21.5560    -8.9120    -1.7950 C.3          1 NAP300   0.0000
     7 O4B         22.2800    -7.8600    -2.0470 O.3          1 NAP300   0.0000
     8 C3B         21.8780    -9.9140    -2.9240 C.3          1 NAP300   0.0000
     9 O3B         20.7940   -10.7050    -3.2320 O.3          1 NAP300   0.0000
    10 C2B         22.2510    -9.0270    -4.1130 C.3          1 NAP300   0.0000
    11 O2B         21.0930    -8.8840    -5.0140 O.3          1 NAP300   0.0000
    12 C1B         22.5700    -7.8500    -3.6260 C.3          1 NAP300   0.0000
    13 N9A         23.9770    -7.5890    -3.9060 N.pl3        1 NAP300   0.0000
    14 C8A         25.1260    -8.1260    -3.5020 C.2          1 NAP300   0.0000
    15 N7A         26.1230    -7.4760    -4.1210 N.2          1 NAP300   0.0000
    16 C5A         25.5690    -6.5340    -4.9180 C.ar         1 NAP300   0.0000
    17 C6A         26.1170    -5.5900    -5.7870 C.ar         1 NAP300   0.0000
    18 N6A         27.5100    -5.3450    -6.0740 N.pl3        1 NAP300   0.0000
    19 N1A         25.3280    -4.7800    -6.4670 N.ar         1 NAP300   0.0000
    20 C2A         23.9700    -4.8620    -6.3250 C.ar         1 NAP300   0.0000
    21 N3A         23.4400    -5.7750    -5.4900 N.ar         1 NAP300   0.0000
    22 C4A         24.2520    -6.6100    -4.7890 C.ar         1 NAP300   0.0000
    23 O3          21.9080   -10.9480     2.0900 O.3          1 NAP300   0.0000
    24 PN          20.9490   -11.6070     3.3170 P.3          1 NAP300   0.0000
    25 O1N         21.5030   -12.9390     3.7860 O.co2        1 NAP300   0.0000
    26 O2N         19.5060   -11.7240     2.8490 O.co2        1 NAP300  -1.0000
    27 O5D         20.9870   -10.4290     4.5050 O.3          1 NAP300   0.0000
    28 C5D         20.6270    -9.1360     4.0410 C.3          1 NAP300   0.0000
    29 C4D         21.3250    -8.0470     4.8750 C.3          1 NAP300   0.0000
    30 O4D         21.3870    -8.4180     6.1420 O.3          1 NAP300   0.0000
    31 C3D         22.7750    -7.9210     4.3840 C.3          1 NAP300   0.0000
    32 O3D         23.1450    -6.6140     4.3770 O.3          1 NAP300   0.0000
    33 C2D         23.5480    -8.7910     5.3980 C.3          1 NAP300   0.0000
    34 O2D         24.9840    -8.3920     5.4510 O.3          1 NAP300   0.0000
    35 C1D         22.9370    -8.5900     6.5500 C.3          1 NAP300   0.0000
    36 N1N         23.1010    -9.7150     7.4200 N.ar         1 NAP300   1.0000
    37 C2N         22.4340   -10.8930     7.1970 C.ar         1 NAP300   0.0000
    38 C3N         22.5980   -11.9710     8.0530 C.ar         1 NAP300   0.0000
    39 C7N         21.8600   -13.2500     7.7870 C.2          1 NAP300   0.0000
    40 O7N         21.7580   -14.0650     8.6190 O.2          1 NAP300   0.0000
    41 N7N         21.3080   -13.4760     6.4900 N.am         1 NAP300   0.0000
    42 C4N         23.4400   -11.8630     9.1360 C.ar         1 NAP300   0.0000
    43 C5N         24.1120   -10.6960     9.3580 C.ar         1 NAP300   0.0000
    44 C6N         23.9520    -9.6060     8.5040 C.ar         1 NAP300   0.0000
    45 P2B         21.0220    -9.7710    -6.4240 P.3          1 NAP300   0.0000
    46 O1X         22.3330    -9.7140    -7.1430 O.co2        1 NAP300   0.0000
    47 O2X         19.9340    -9.1260    -7.2580 O.co2        1 NAP300  -1.0000
    48 O3X         20.7250   -11.2320    -6.0560 O.co2        1 NAP300  -1.0000
    49 H5B1        22.9538    -9.3470    -0.2925 H            1 NAP300   0.0000
    50 H5B2        21.4509    -9.0905     0.2925 H            1 NAP300   0.0000
    51 H4B         20.5830    -8.6812    -1.7917 H            1 NAP300   0.0000
    52 H3B         22.6567   -10.4850    -2.6642 H            1 NAP300   0.0000
    53 H5          20.8333   -10.9632    -4.1973 H            1 NAP300   0.0000
    54 H2B         23.0272    -9.4189    -4.6069 H            1 NAP300   0.0000
    55 H1B         22.0086    -7.1468    -4.0623 H            1 NAP300   0.0000
    56 H8A         25.2279    -8.8797    -2.8527 H            1 NAP300   0.0000
    57 H6A1        27.7684    -4.6304    -6.7241 H            1 NAP300   0.0000
    58 H6A2        28.2168    -5.8898    -5.6228 H            1 NAP300   0.0000
    59 H2A         23.3734    -4.2461    -6.8395 H            1 NAP300   0.0000
    60 H5D1        19.6363    -9.0236     4.1171 H            1 NAP300   0.0000
    61 H5D2        20.9005    -9.0425     3.0837 H            1 NAP300   0.0000
    62 H4D         20.8457    -7.1738     4.7864 H            1 NAP300   0.0000
    63 H3D         22.8609    -8.3067     3.4654 H            1 NAP300   0.0000
    64 H16         22.9282    -6.2109     3.4879 H            1 NAP300   0.0000
    65 H2D         23.4748    -9.7546     5.1408 H            1 NAP300   0.0000
    66 H18         25.3957    -8.5076     4.5470 H            1 NAP300   0.0000
    67 H1D         23.2783    -7.7575     6.9865 H            1 NAP300   0.0000
    68 H2N         21.8235   -10.9748     6.4092 H            1 NAP300   0.0000
    69 H7N1        20.8135   -14.3237     6.2978 H            1 NAP300   0.0000
    70 H7N2        21.4158   -12.7866     5.7737 H            1 NAP300   0.0000
    71 H4N         23.5591   -12.6368     9.7581 H            1 NAP300   0.0000
    72 H5N         24.7269   -10.6220    10.1432 H            1 NAP300   0.0000
    73 H6N         24.4476    -8.7542     8.6737 H            1 NAP300   0.0000
@<TRIPOS>BOND
     1    1    2      ar
     2    1    3      ar
     3    1    4       1
     4    1   23       1
     5    4    5       1
     6    5    6       1
     7    6    7       1
     8    6    8       1
     9    7   12       1
    10    8    9       1
    11    8   10       1
    12   10   11       1
    13   10   12       1
    14   11   45       1
    15   12   13       1
    16   13   14       1
    17   13   22       1
    18   14   15       2
    19   15   16       1
    20   16   17      ar
    21   16   22      ar
    22   17   18       1
    23   17   19      ar
    24   19   20      ar
    25   20   21      ar
    26   21   22      ar
    27   23   24       1
    28   24   25      ar
    29   24   26      ar
    30   24   27       1
    31   27   28       1
    32   28   29       1
    33   29   30       1
    34   29   31       1
    35   30   35       1
    36   31   32       1
    37   31   33       1
    38   33   34       1
    39   33   35       1
    40   35   36       1
    41   36   37      ar
    42   36   44      ar
    43   37   38      ar
    44   38   39       1
    45   38   42      ar
    46   39   40       2
    47   39   41      am
    48   42   43      ar
    49   43   44      ar
    50   45   46      ar
    51   45   47      ar
    52   45   48      ar
    53   43   72       1
    54    5   49       1
    55    5   50       1
    56    6   51       1
    57    8   52       1
    58    9   53       1
    59   10   54       1
    60   12   55       1
    61   14   56       1
    62   18   57       1
    63   18   58       1
    64   20   59       1
    65   44   73       1
    66   28   60       1
    67   28   61       1
    68   29   62       1
    69   31   63       1
    70   32   64       1
    71   33   65       1
    72   34   66       1
    73   35   67       1
    74   37   68       1
    75   41   69       1
    76   41   70       1
    77   42   71       1
@<TRIPOS>SUBSTRUCTURE
     1 NAP300      1 GROUP             4 C     NAP     0 **** NAP C 300
