@<TRIPOS>MOLECULE
5epv_ACP_3_ligand
   45    47     1     0     0
SMALL
NO_CHARGES


@<TRIPOS>ATOM
     1 PG          -7.3640   -19.7080   -30.6620 P.3          1 ACP501   0.0000
     2 O1G         -6.0360   -19.0650   -31.1320 O.co2        1 ACP501   0.0000
     3 O2G         -7.3340   -21.1920   -31.0960 O.co2        1 ACP501  -1.0000
     4 O3G         -7.6000   -19.5490   -29.1930 O.co2        1 ACP501  -1.0000
     5 PB          -9.7740   -17.8840   -30.7230 P.3          1 ACP501   0.0000
     6 O1B        -10.8590   -17.3130   -31.6940 O.co2        1 ACP501   0.0000
     7 O2B        -10.2840   -18.2740   -29.3320 O.co2        1 ACP501  -1.0000
     8 C3B         -8.6760   -18.9460   -31.5630 C.3          1 ACP501   0.0000
     9 PA          -7.7870   -15.7030   -30.7050 P.3          1 ACP501   0.0000
    10 O1A         -6.4990   -16.4240   -30.8310 O.co2        1 ACP501   0.0000
    11 O2A         -7.8240   -14.3790   -29.9310 O.co2        1 ACP501  -1.0000
    12 O3A         -9.0710   -16.5140   -30.2460 O.3          1 ACP501   0.0000
    13 O5'         -8.1260   -15.0690   -32.1460 O.3          1 ACP501   0.0000
    14 C5'         -9.3670   -14.4660   -32.5580 C.3          1 ACP501   0.0000
    15 C4'         -9.2310   -14.1150   -34.0170 C.3          1 ACP501   0.0000
    16 O4'         -8.2960   -13.0290   -34.1730 O.3          1 ACP501   0.0000
    17 C3'         -8.6650   -15.2180   -34.9020 C.3          1 ACP501   0.0000
    18 O3'         -9.6210   -16.2080   -35.2630 O.3          1 ACP501   0.0000
    19 C2'         -8.1530   -14.4290   -36.1030 C.3          1 ACP501   0.0000
    20 O2'         -9.1800   -14.1880   -37.0530 O.3          1 ACP501   0.0000
    21 C1'         -7.6930   -13.1160   -35.4540 C.3          1 ACP501   0.0000
    22 N9          -6.2400   -12.9880   -35.3260 N.pl3        1 ACP501   0.0000
    23 C8          -5.4600   -13.2930   -34.2400 C.2          1 ACP501   0.0000
    24 N7          -4.1850   -13.0310   -34.4060 N.2          1 ACP501   0.0000
    25 C5          -4.1190   -12.5140   -35.6910 C.ar         1 ACP501   0.0000
    26 C6          -3.0470   -12.0130   -36.4650 C.ar         1 ACP501   0.0000
    27 N6          -1.7770   -11.9860   -36.0480 N.pl3        1 ACP501   0.0000
    28 N1          -3.3280   -11.5550   -37.7100 N.ar         1 ACP501   0.0000
    29 C2          -4.5890   -11.6200   -38.1510 C.ar         1 ACP501   0.0000
    30 N3          -5.6760   -12.0750   -37.5170 N.ar         1 ACP501   0.0000
    31 C4          -5.3760   -12.4960   -36.2770 C.ar         1 ACP501   0.0000
    32 H3B1        -9.2255   -19.6818   -31.9588 H            1 ACP501   0.0000
    33 H3B2        -8.2559   -18.4120   -32.2968 H            1 ACP501   0.0000
    34 H5'1        -9.5408   -13.6399   -32.0219 H            1 ACP501   0.0000
    35 H5'2       -10.1202   -15.1111   -32.4299 H            1 ACP501   0.0000
    36 H4'        -10.1228   -13.8342   -34.3718 H            1 ACP501   0.0000
    37 H3'         -7.8941   -15.6540   -34.4376 H            1 ACP501   0.0000
    38 H7          -9.1846   -16.8977   -35.8408 H            1 ACP501   0.0000
    39 H2'         -7.3813   -14.8998   -36.5305 H            1 ACP501   0.0000
    40 H9          -8.8070   -13.6702   -37.8229 H            1 ACP501   0.0000
    41 H1'         -8.0276   -12.3560   -36.0111 H            1 ACP501   0.0000
    42 H11         -5.8303   -13.6809   -33.3960 H            1 ACP501   0.0000
    43 H12         -1.0629   -11.6183   -36.6436 H            1 ACP501   0.0000
    44 H13         -1.5412   -12.3335   -35.1405 H            1 ACP501   0.0000
    45 H14         -4.7399   -11.2829   -39.0803 H            1 ACP501   0.0000
@<TRIPOS>BOND
     1    1    2      ar
     2    1    3      ar
     3    1    4      ar
     4    1    8       1
     5    5    6      ar
     6    5    7      ar
     7    5    8       1
     8    5   12       1
     9    9   10      ar
    10    9   11      ar
    11    9   12       1
    12    9   13       1
    13   13   14       1
    14   14   15       1
    15   15   16       1
    16   15   17       1
    17   16   21       1
    18   17   18       1
    19   17   19       1
    20   19   20       1
    21   19   21       1
    22   21   22       1
    23   22   23       1
    24   22   31       1
    25   23   24       2
    26   24   25       1
    27   25   26      ar
    28   25   31      ar
    29   26   27       1
    30   26   28      ar
    31   28   29      ar
    32   29   30      ar
    33   30   31      ar
    34   29   45       1
    35   27   44       1
    36   27   43       1
    37    8   32       1
    38    8   33       1
    39   23   42       1
    40   14   34       1
    41   14   35       1
    42   15   36       1
    43   17   37       1
    44   18   38       1
    45   19   39       1
    46   20   40       1
    47   21   41       1
@<TRIPOS>SUBSTRUCTURE
     1 ACP501      1 GROUP             4 C     ACP     0 **** ACP C 501
