@<TRIPOS>MOLECULE
3swc_SAH_2_ligand
   46    48     1     0     0
SMALL
NO_CHARGES


@<TRIPOS>ATOM
     1 N          -23.8480    33.2350    10.0260 N.4          1 SAH202   1.0000
     2 CA         -24.3020    31.9290    10.4950 C.3          1 SAH202   0.0000
     3 CB         -24.3450    30.9030     9.3670 C.3          1 SAH202   0.0000
     4 CG         -25.6240    30.9240     8.5450 C.3          1 SAH202   0.0000
     5 SD         -26.9690    30.0870     9.4190 S.3          1 SAH202   0.0000
     6 C          -23.3850    31.4340    11.6060 C.2          1 SAH202   0.0000
     7 O          -22.5190    32.2040    12.0460 O.co2        1 SAH202   0.0000
     8 OXT        -23.4920    30.2850    12.0720 O.co2        1 SAH202  -1.0000
     9 C5'        -28.1410    31.4190     9.0730 C.3          1 SAH202   0.0000
    10 C4'        -28.1390    32.5090    10.1340 C.3          1 SAH202   0.0000
    11 O4'        -27.0780    33.4060     9.8610 O.3          1 SAH202   0.0000
    12 C3'        -29.4090    33.3490    10.1180 C.3          1 SAH202   0.0000
    13 O3'        -30.4150    32.8570    10.9750 O.3          1 SAH202   0.0000
    14 C2'        -28.9000    34.6980    10.5580 C.3          1 SAH202   0.0000
    15 O2'        -28.5620    34.6610    11.9220 O.3          1 SAH202   0.0000
    16 C1'        -27.5720    34.7330     9.8680 C.3          1 SAH202   0.0000
    17 N9         -27.6670    35.2350     8.4810 N.pl3        1 SAH202   0.0000
    18 C8         -27.4470    34.5060     7.3340 C.2          1 SAH202   0.0000
    19 N7         -27.5960    35.3290     6.2720 N.2          1 SAH202   0.0000
    20 C5         -27.9160    36.5670     6.7260 C.ar         1 SAH202   0.0000
    21 C6         -28.1840    37.7670     6.0760 C.ar         1 SAH202   0.0000
    22 N6         -28.1460    37.8260     4.7470 N.pl3        1 SAH202   0.0000
    23 N1         -28.4860    38.8970     6.8170 N.ar         1 SAH202   0.0000
    24 C2         -28.5330    38.8340     8.1900 C.ar         1 SAH202   0.0000
    25 N3         -28.2640    37.6390     8.8200 N.ar         1 SAH202   0.0000
    26 C4         -27.9570    36.5250     8.1060 C.ar         1 SAH202   0.0000
    27 H1         -23.8335    33.8777    10.7920 H            1 SAH202   0.0000
    28 H2         -22.9276    33.1506     9.6442 H            1 SAH202   0.0000
    29 HA         -25.2247    32.0294    10.8671 H            1 SAH202   0.0000
    30 HB1        -24.2467    29.9926     9.7688 H            1 SAH202   0.0000
    31 HB2        -23.5760    31.0812     8.7531 H            1 SAH202   0.0000
    32 HG1        -25.4610    30.4600     7.6743 H            1 SAH202   0.0000
    33 HG2        -25.8866    31.8734     8.3727 H            1 SAH202   0.0000
    34 H5'1       -29.0600    31.0282     9.0205 H            1 SAH202   0.0000
    35 H5'2       -27.9033    31.8311     8.1934 H            1 SAH202   0.0000
    36 H4'        -28.0138    32.1013    11.0385 H            1 SAH202   0.0000
    37 H3'        -29.7615    33.4097     9.1841 H            1 SAH202   0.0000
    38 H12        -30.9729    33.6182    11.3056 H            1 SAH202   0.0000
    39 H2'        -29.5029    35.4569    10.3119 H            1 SAH202   0.0000
    40 H14        -29.3709    34.4226    12.4595 H            1 SAH202   0.0000
    41 H1'        -26.9461    35.3150    10.3871 H            1 SAH202   0.0000
    42 H16        -27.2164    33.5338     7.2934 H            1 SAH202   0.0000
    43 H17        -28.3386    38.6885     4.2791 H            1 SAH202   0.0000
    44 H18        -27.9248    37.0078     4.2163 H            1 SAH202   0.0000
    45 H19        -28.7601    39.6474     8.7255 H            1 SAH202   0.0000
    46 H20        -24.4719    33.5712     9.3205 H            1 SAH202   0.0000
@<TRIPOS>BOND
     1    1    2       1
     2    2    3       1
     3    2    6       1
     4    3    4       1
     5    4    5       1
     6    5    9       1
     7    6    7      ar
     8    6    8      ar
     9    9   10       1
    10   10   11       1
    11   10   12       1
    12   11   16       1
    13   12   13       1
    14   12   14       1
    15   14   15       1
    16   14   16       1
    17   16   17       1
    18   17   18       1
    19   17   26       1
    20   18   19       2
    21   19   20       1
    22   20   21      ar
    23   20   26      ar
    24   21   22       1
    25   21   23      ar
    26   23   24      ar
    27   24   25      ar
    28   25   26      ar
    29    1   27       1
    30    1   28       1
    31    2   29       1
    32    3   30       1
    33    3   31       1
    34    4   32       1
    35    4   33       1
    36    1   46       1
    37    9   34       1
    38    9   35       1
    39   10   36       1
    40   12   37       1
    41   13   38       1
    42   14   39       1
    43   15   40       1
    44   16   41       1
    45   18   42       1
    46   22   43       1
    47   22   44       1
    48   24   45       1
@<TRIPOS>SUBSTRUCTURE
     1 SAH202      1 GROUP             4 A     SAH     0 **** SAH A 202
