@<TRIPOS>MOLECULE
4e5g_XI7_4_ligand
   21    21     1     0     0
SMALL
NO_CHARGES


@<TRIPOS>ATOM
     1 O8         -55.1490   -15.0780   -15.7930 O.3          1 XI7306   0.0000
     2 C9         -56.3690   -14.5580   -15.7550 C.2          1 XI7306   0.0000
     3 C10        -57.3770   -15.1330   -14.8670 C.2          1 XI7306   0.0000
     4 O11        -57.0480   -16.1080   -14.1670 O.co2        1 XI7306   0.0000
     5 O10        -58.5340   -14.6550   -14.8160 O.co2        1 XI7306  -1.0000
     6 C8         -56.6790   -13.5100   -16.5290 C.2          1 XI7306   0.0000
     7 C7         -55.7170   -12.8670   -17.4480 C.2          1 XI7306   0.0000
     8 C1         -56.1930   -11.6950   -18.2570 C.ar         1 XI7306   0.0000
     9 C6         -55.3230   -11.0610   -19.1380 C.ar         1 XI7306   0.0000
    10 C5         -55.7910    -9.9760   -19.8810 C.ar         1 XI7306   0.0000
    11 C4         -57.1060    -9.5200   -19.7510 C.ar         1 XI7306   0.0000
    12 C3         -57.9750   -10.1520   -18.8710 C.ar         1 XI7306   0.0000
    13 C2         -57.5130   -11.2400   -18.1320 C.ar         1 XI7306   0.0000
    14 O14        -54.5680   -13.2680   -17.5580 O.2          1 XI7306   0.0000
    15 H1         -54.4573   -14.6865   -16.3998 H            1 XI7306   0.0000
    16 H2         -57.6085   -13.1441   -16.4827 H            1 XI7306   0.0000
    17 H3         -54.3794   -11.3768   -19.2372 H            1 XI7306   0.0000
    18 H4         -55.1734    -9.5158   -20.5189 H            1 XI7306   0.0000
    19 H5         -57.4207    -8.7395   -20.2911 H            1 XI7306   0.0000
    20 H6         -58.9168    -9.8318   -18.7692 H            1 XI7306   0.0000
    21 H7         -58.1346   -11.7044   -17.5012 H            1 XI7306   0.0000
@<TRIPOS>BOND
     1    1    2       1
     2    2    3       1
     3    2    6       2
     4    3    4      ar
     5    3    5      ar
     6    6    7       1
     7    7    8       1
     8    7   14       2
     9    8    9      ar
    10    8   13      ar
    11    9   10      ar
    12   10   11      ar
    13   11   12      ar
    14   12   13      ar
    15    1   15       1
    16   13   21       1
    17    6   16       1
    18    9   17       1
    19   10   18       1
    20   11   19       1
    21   12   20       1
@<TRIPOS>SUBSTRUCTURE
     1 XI7306      1 GROUP             4 B     XI7     0 **** XI7 B 306
