@<TRIPOS>MOLECULE
5d3f_FSC_1_ligand
  104   107     1     0     0
SMALL
NO_CHARGES


@<TRIPOS>ATOM
     1 C1           6.8180   -13.1220    21.4450 C.2          1 FSC301   0.0000
     2 C4           5.8900   -12.7120    22.4180 C.2          1 FSC301   0.0000
     3 C11          4.3690   -12.9000    22.3510 C.3          1 FSC301   0.0000
     4 C18          3.6180   -11.5940    22.5980 C.3          1 FSC301   0.0000
     5 C17          3.8900   -13.8960    23.3740 C.3          1 FSC301   0.0000
     6 O24          2.4960   -13.9380    23.3200 O.3          1 FSC301   0.0000
     7 C31          1.8750   -14.7570    24.2990 C.2          1 FSC301   0.0000
     8 O37          2.0430   -14.4890    25.4810 O.2          1 FSC301   0.0000
     9 C36          0.7440   -15.6950    23.8820 C.3          1 FSC301   0.0000
    10 C10          6.5620   -12.0260    23.5700 C.3          1 FSC301   0.0000
    11 C6           8.0620   -12.4970    23.3440 C.3          1 FSC301   0.0000
    12 O13          8.8470   -11.5310    23.5630 O.3          1 FSC301   0.0000
    13 C2           8.1020   -12.8240    21.7510 C.3          1 FSC301   0.0000
    14 C7           9.0910   -14.0440    21.4830 C.3          1 FSC301   0.0000
    15 C5           8.6720   -11.5210    21.1820 C.2          1 FSC301   0.0000
    16 C12          8.0100   -10.5710    20.1600 C.2          1 FSC301   0.0000
    17 C20          8.7730    -9.1680    19.6700 C.3          1 FSC301   0.0000
    18 C27         10.1850    -9.5370    19.4010 C.3          1 FSC301   0.0000
    19 O32         10.7960    -8.6140    18.5630 O.3          1 FSC301   0.0000
    20 C38         12.2080    -8.7740    18.6320 C.3          1 FSC301   0.0000
    21 C26          7.9910    -8.7640    18.5840 C.3          1 FSC301   0.0000
    22 C25          6.5070    -9.2620    18.9450 C.3          1 FSC301   0.0000
    23 C19          6.8010   -10.6850    19.5570 C.3          1 FSC301   0.0000
    24 C15          6.7570   -11.8070    18.4680 C.3          1 FSC301   0.0000
    25 C23          8.1160   -12.2020    17.9600 C.3          1 FSC301   0.0000
    26 C9           5.9450   -13.0010    18.9640 C.3          1 FSC301   0.0000
    27 O16          5.7230   -13.8890    17.8840 O.3          1 FSC301   0.0000
    28 C3           6.5320   -13.8830    20.0910 C.3          1 FSC301   0.0000
    29 O8           5.6210   -15.0140    20.3110 O.3          1 FSC301   0.0000
    30 C14          6.1910   -16.2840    20.0040 C.3          1 FSC301   0.0000
    31 O22          7.1440   -16.6290    21.0710 O.3          1 FSC301   0.0000
    32 C30          6.5050   -16.5860    22.3880 C.3          1 FSC301   0.0000
    33 C33          5.3830   -17.6040    22.4500 C.3          1 FSC301   0.0000
    34 O39          4.6530   -17.5010    23.6890 O.3          1 FSC301   0.0000
    35 C28          4.4320   -17.4100    21.3110 C.3          1 FSC301   0.0000
    36 O34          3.5350   -18.5270    21.2230 O.3          1 FSC301   0.0000
    37 C40          2.2370   -18.2230    21.7370 C.2          1 FSC301   0.0000
    38 O43          1.5990   -17.2920    21.2590 O.2          1 FSC301   0.0000
    39 C42          1.6440   -19.1300    22.8260 C.3          1 FSC301   0.0000
    40 C21          5.0750   -17.2950    19.9800 C.3          1 FSC301   0.0000
    41 O29          4.0450   -16.8700    19.0690 O.3          1 FSC301   0.0000
    42 C35          7.5970   -16.8420    23.4390 C.3          1 FSC301   0.0000
    43 O41          8.3770   -17.9590    23.0320 O.3          1 FSC301   0.0000
    44 C44          9.0390   -18.6440    24.1070 C.3          1 FSC301   0.0000
    45 C47         10.3760   -17.9060    24.3590 C.3          1 FSC301   0.0000
    46 C46          9.3130   -20.1160    23.6740 C.3          1 FSC301   0.0000
    47 C45          8.1770   -18.6970    25.3490 C.2          1 FSC301   0.0000
    48 C48          7.0530   -19.4940    25.3770 C.2          1 FSC301   0.0000
    49 H1           4.1295   -13.2380    21.4408 H            1 FSC301   0.0000
    50 H2           2.6334   -11.7606    22.5456 H            1 FSC301   0.0000
    51 H3           3.8489   -11.2432    23.5055 H            1 FSC301   0.0000
    52 H4           3.8798   -10.9227    21.9046 H            1 FSC301   0.0000
    53 H5           4.1853   -13.6130    24.2865 H            1 FSC301   0.0000
    54 H6           4.2644   -14.8001    23.1679 H            1 FSC301   0.0000
    55 H7           0.4164   -16.1983    24.6816 H            1 FSC301   0.0000
    56 H8          -0.0067   -15.1602    23.4942 H            1 FSC301   0.0000
    57 H9           1.0818   -16.3407    23.1972 H            1 FSC301   0.0000
    58 H10          6.2035   -12.3413    24.4487 H            1 FSC301   0.0000
    59 H11          6.4735   -11.0317    23.5113 H            1 FSC301   0.0000
    60 H12          8.2905   -13.2983    23.8969 H            1 FSC301   0.0000
    61 H13          9.7907   -11.8294    23.4202 H            1 FSC301   0.0000
    62 H14         10.0239   -13.7758    21.7233 H            1 FSC301   0.0000
    63 H15          8.8146   -14.8260    22.0416 H            1 FSC301   0.0000
    64 H16          9.0552   -14.2959    20.5159 H            1 FSC301   0.0000
    65 H17          9.5781   -11.2545    21.5105 H            1 FSC301   0.0000
    66 H18          8.7303    -8.4827    20.3970 H            1 FSC301   0.0000
    67 H19         10.2094   -10.4375    18.9669 H            1 FSC301   0.0000
    68 H20         10.6836    -9.5709    20.2671 H            1 FSC301   0.0000
    69 H21         12.6487    -8.1094    18.0286 H            1 FSC301   0.0000
    70 H22         12.5148    -8.6254    19.5721 H            1 FSC301   0.0000
    71 H23         12.4531    -9.6997    18.3438 H            1 FSC301   0.0000
    72 H24          8.3115    -9.1928    17.7394 H            1 FSC301   0.0000
    73 H25          8.0146    -7.7694    18.4827 H            1 FSC301   0.0000
    74 H26          5.9332    -9.3258    18.1285 H            1 FSC301   0.0000
    75 H27          6.0706    -8.6591    19.6128 H            1 FSC301   0.0000
    76 H28          6.1115   -10.8848    20.2532 H            1 FSC301   0.0000
    77 H29          6.2597   -11.4280    17.6876 H            1 FSC301   0.0000
    78 H30          8.0184   -12.9193    17.2701 H            1 FSC301   0.0000
    79 H31          8.5638   -11.4062    17.5524 H            1 FSC301   0.0000
    80 H32          8.6696   -12.5432    18.7197 H            1 FSC301   0.0000
    81 H33          5.0557   -12.6618    19.2708 H            1 FSC301   0.0000
    82 H34          4.8564   -14.3692    18.0200 H            1 FSC301   0.0000
    83 H35          7.4009   -14.2539    19.7632 H            1 FSC301   0.0000
    84 H36          6.6542   -16.2540    19.1183 H            1 FSC301   0.0000
    85 H37          6.1230   -15.6733    22.5332 H            1 FSC301   0.0000
    86 H38          5.7777   -18.5206    22.3856 H            1 FSC301   0.0000
    87 H39          3.6948   -17.2909    23.4948 H            1 FSC301   0.0000
    88 H40          3.8963   -16.5826    21.4795 H            1 FSC301   0.0000
    89 H41          0.7381   -18.7935    23.0832 H            1 FSC301   0.0000
    90 H42          1.5659   -20.0636    22.4762 H            1 FSC301   0.0000
    91 H43          2.2420   -19.1233    23.6275 H            1 FSC301   0.0000
    92 H44          5.4308   -18.1858    19.6975 H            1 FSC301   0.0000
    93 H45          3.1842   -16.7614    19.5663 H            1 FSC301   0.0000
    94 H46          7.1725   -17.0338    24.3239 H            1 FSC301   0.0000
    95 H47          8.1823   -16.0351    23.5180 H            1 FSC301   0.0000
    96 H48         10.8692   -18.3548    25.1042 H            1 FSC301   0.0000
    97 H49         10.9323   -17.9311    23.5284 H            1 FSC301   0.0000
    98 H50         10.1903   -16.9552    24.6072 H            1 FSC301   0.0000
    99 H51          9.7742   -20.6016    24.4167 H            1 FSC301   0.0000
   100 H52          8.4461   -20.5694    23.4670 H            1 FSC301   0.0000
   101 H53          9.8946   -20.1214    22.8605 H            1 FSC301   0.0000
   102 H54          8.4232   -18.1528    26.1510 H            1 FSC301   0.0000
   103 H55          6.4844   -19.5278    26.1989 H            1 FSC301   0.0000
   104 H56          6.8061   -20.0385    24.5754 H            1 FSC301   0.0000
@<TRIPOS>BOND
     1    1    2       2
     2    1   13       1
     3    1   28       1
     4    2    3       1
     5    2   10       1
     6    3    4       1
     7    3    5       1
     8    5    6       1
     9    6    7       1
    10    7    8       2
    11    7    9       1
    12   10   11       1
    13   11   12       1
    14   11   13       1
    15   13   14       1
    16   13   15       1
    17   15   16       2
    18   16   17       1
    19   16   23       1
    20   17   18       1
    21   17   21       1
    22   18   19       1
    23   19   20       1
    24   21   22       1
    25   22   23       1
    26   23   24       1
    27   24   25       1
    28   24   26       1
    29   26   27       1
    30   26   28       1
    31   28   29       1
    32   29   30       1
    33   30   31       1
    34   30   40       1
    35   31   32       1
    36   32   33       1
    37   32   42       1
    38   33   34       1
    39   33   35       1
    40   35   36       1
    41   35   40       1
    42   36   37       1
    43   37   38       2
    44   37   39       1
    45   40   41       1
    46   42   43       1
    47   43   44       1
    48   44   45       1
    49   44   46       1
    50   44   47       1
    51   47   48       2
    52    3   49       1
    53    4   50       1
    54    4   51       1
    55    4   52       1
    56    5   53       1
    57    5   54       1
    58    9   55       1
    59    9   56       1
    60    9   57       1
    61   10   58       1
    62   10   59       1
    63   11   60       1
    64   12   61       1
    65   14   62       1
    66   14   63       1
    67   14   64       1
    68   15   65       1
    69   17   66       1
    70   18   67       1
    71   18   68       1
    72   20   69       1
    73   20   70       1
    74   20   71       1
    75   21   72       1
    76   21   73       1
    77   22   74       1
    78   22   75       1
    79   23   76       1
    80   24   77       1
    81   25   78       1
    82   25   79       1
    83   25   80       1
    84   26   81       1
    85   27   82       1
    86   28   83       1
    87   30   84       1
    88   32   85       1
    89   33   86       1
    90   34   87       1
    91   35   88       1
    92   39   89       1
    93   39   90       1
    94   39   91       1
    95   40   92       1
    96   41   93       1
    97   42   94       1
    98   42   95       1
    99   45   96       1
   100   45   97       1
   101   45   98       1
   102   46   99       1
   103   46  100       1
   104   46  101       1
   105   47  102       1
   106   48  103       1
   107   48  104       1
@<TRIPOS>SUBSTRUCTURE
     1 FSC301      1 GROUP             4 B     FSC     0 **** FSC B 301
