@<TRIPOS>MOLECULE
1t5b_FMN_1_ligand
   50    52     1     0     0
SMALL
NO_CHARGES


@<TRIPOS>ATOM
     1 N1          -1.2720    46.3700    27.9230 N.2          1 FMN202   0.0000
     2 C2           0.0470    46.0080    27.8900 C.2          1 FMN202   0.0000
     3 O2           0.8520    46.4330    28.6870 O.2          1 FMN202   0.0000
     4 N3           0.4090    45.0990    26.8490 N.pl3        1 FMN202   0.0000
     5 C4          -0.4650    44.5300    25.8480 C.2          1 FMN202   0.0000
     6 O4          -0.0200    43.7650    25.0060 O.2          1 FMN202   0.0000
     7 C4A         -1.8110    44.9410    25.9450 C.2          1 FMN202   0.0000
     8 N5          -2.8460    44.5490    25.1170 N.2          1 FMN202   0.0000
     9 C5A         -4.1840    44.8930    25.1030 C.ar         1 FMN202   0.0000
    10 C6          -5.0990    44.3390    24.0900 C.ar         1 FMN202   0.0000
    11 C7          -6.5070    44.7550    24.1040 C.ar         1 FMN202   0.0000
    12 C7M         -7.4020    44.1560    23.0250 C.3          1 FMN202   0.0000
    13 C8          -6.9830    45.7230    25.1410 C.ar         1 FMN202   0.0000
    14 C8M         -8.4540    46.2600    25.2690 C.3          1 FMN202   0.0000
    15 C9          -6.0210    46.2250    26.1190 C.ar         1 FMN202   0.0000
    16 C9A         -4.6040    45.8150    26.1100 C.ar         1 FMN202   0.0000
    17 N10         -3.5570    46.2480    27.0100 N.pl3        1 FMN202   0.0000
    18 C10         -2.1750    45.8710    27.0010 C.2          1 FMN202   0.0000
    19 C1'         -3.9080    47.2490    28.1180 C.3          1 FMN202   0.0000
    20 C2'         -4.0020    48.6720    27.5480 C.3          1 FMN202   0.0000
    21 O2'         -2.7930    49.0730    26.8740 O.3          1 FMN202   0.0000
    22 C3'         -4.3170    49.6990    28.6320 C.3          1 FMN202   0.0000
    23 O3'         -5.5010    49.3440    29.3640 O.3          1 FMN202   0.0000
    24 C4'         -4.4420    51.0910    27.9430 C.3          1 FMN202   0.0000
    25 O4'         -4.5280    52.1050    28.9530 O.3          1 FMN202   0.0000
    26 C5'         -5.7190    51.1850    27.1720 C.3          1 FMN202   0.0000
    27 O5'         -5.9380    52.4030    26.5290 O.3          1 FMN202   0.0000
    28 P           -7.2680    52.5320    25.7650 P.3          1 FMN202   0.0000
    29 O1P         -8.4570    53.1420    26.3710 O.co2        1 FMN202   0.0000
    30 O2P         -7.1730    52.3880    24.2930 O.co2        1 FMN202  -1.0000
    31 O3P         -6.6760    53.8630    25.5470 O.co2        1 FMN202  -1.0000
    32 H1           1.3705    44.8271    26.8084 H            1 FMN202   0.0000
    33 H2          -4.7669    43.6909    23.4047 H            1 FMN202   0.0000
    34 H7M1        -8.3323    44.5073    23.1306 H            1 FMN202   0.0000
    35 H7M2        -7.0510    44.4078    22.1231 H            1 FMN202   0.0000
    36 H7M3        -7.4098    43.1600    23.1135 H            1 FMN202   0.0000
    37 H8M1        -8.5118    46.8930    26.0410 H            1 FMN202   0.0000
    38 H8M2        -8.7094    46.7363    24.4276 H            1 FMN202   0.0000
    39 H8M3        -9.0771    45.4925    25.4198 H            1 FMN202   0.0000
    40 H9          -6.3335    46.8682    26.8181 H            1 FMN202   0.0000
    41 H1'1        -3.1983    47.2228    28.8220 H            1 FMN202   0.0000
    42 H1'2        -4.7876    46.9976    28.5219 H            1 FMN202   0.0000
    43 H2'         -4.7471    48.6887    26.8812 H            1 FMN202   0.0000
    44 H13         -2.6110    48.4473    26.1155 H            1 FMN202   0.0000
    45 H3'         -3.5481    49.7304    29.2706 H            1 FMN202   0.0000
    46 H15         -5.2506    48.7751    30.1474 H            1 FMN202   0.0000
    47 H4'         -3.6582    51.2577    27.3447 H            1 FMN202   0.0000
    48 H17         -3.7044    52.0817    29.5197 H            1 FMN202   0.0000
    49 H5'1        -6.4757    51.0305    27.8073 H            1 FMN202   0.0000
    50 H5'2        -5.7145    50.4654    26.4776 H            1 FMN202   0.0000
@<TRIPOS>BOND
     1    1    2       1
     2    1   18       2
     3    2    3       2
     4    2    4       1
     5    4    5       1
     6    5    6       2
     7    5    7       1
     8    7    8       2
     9    7   18       1
    10    8    9       1
    11    9   10      ar
    12    9   16      ar
    13   10   11      ar
    14   11   12       1
    15   11   13      ar
    16   13   14       1
    17   13   15      ar
    18   15   16      ar
    19   16   17       1
    20   17   18       1
    21   17   19       1
    22   19   20       1
    23   20   21       1
    24   20   22       1
    25   22   23       1
    26   22   24       1
    27   24   25       1
    28   24   26       1
    29   26   27       1
    30   27   28       1
    31   28   29      ar
    32   28   30      ar
    33   28   31      ar
    34    4   32       1
    35   10   33       1
    36   12   34       1
    37   12   35       1
    38   12   36       1
    39   14   37       1
    40   14   38       1
    41   14   39       1
    42   15   40       1
    43   19   41       1
    44   19   42       1
    45   20   43       1
    46   21   44       1
    47   22   45       1
    48   23   46       1
    49   24   47       1
    50   25   48       1
    51   26   49       1
    52   26   50       1
@<TRIPOS>SUBSTRUCTURE
     1 FMN202      1 GROUP             4 A     FMN     0 **** FMN A 202
