@<TRIPOS>MOLECULE
./coach420/2dve/ligand.pdb
 38 42 0 0 0
SMALL
GASTEIGER

@<TRIPOS>ATOM
      1  CBB      -19.3470  -11.1550   -6.9090 C.2   1301  BT51301     0.3210
      2  OBB      -20.1200  -12.0080   -6.3500 O.3   1301  BT51301    -0.4101
      3  OCB      -18.1010  -11.1810   -6.7310 O.2   1301  BT51301    -0.2498
      4  CAB      -20.0260  -10.1290   -7.7940 C.3   1301  BT51301     0.1098
      5  C9B      -20.1630   -8.9000   -7.4660 C.3   1301  BT51301     0.0117
      6  C8B      -20.8260   -8.0670   -8.5090 C.3   1301  BT51301     0.0015
      7  C7B      -20.9530   -6.6350   -8.0440 C.3   1301  BT51301     0.0126
      8  C2B      -21.6180   -5.6880   -9.0270 C.3   1301  BT51301     0.0694
      9  S1B      -21.7350   -4.0130   -8.4160 S.3   1301  BT51301    -0.1374
     10  C6B      -22.5940   -3.6040   -9.9500 C.3   1301  BT51301     0.0810
     11  C5B      -23.6490   -4.7270  -10.0310 C.3   1301  BT51301     0.1284
     12  N1B      -24.8400   -4.4500   -9.1990 N.am  1301  BT51301    -0.1863
     13  C3B      -24.9800   -5.4310   -8.2750 C.2   1301  BT51301     0.3393
     14  O3B      -25.8850   -5.4860   -7.4130 O.2   1301  BT51301    -0.2492
     15  N2B      -23.9920   -6.3720   -8.3970 N.am  1301  BT51301    -0.1863
     16  C4B      -23.0830   -6.0460   -9.4720 C.3   1301  BT51301     0.1275
     17  P        -19.6740  -13.2870   -5.3240 P.3   1301  BT51301     0.2722
     18  OP1      -18.6250  -14.1640   -5.9760 O.2   1301  BT51301    -0.5082
     19  OP2      -20.8590  -13.9910   -5.1460 O.3   1301  BT51301    -0.4273
     20  O5'      -19.0470  -12.7230   -4.1540 O.3   1301  BT51301    -0.3024
     21  C5'      -19.6390  -11.8300   -3.1690 C.3   1301  BT51301     0.1823
     22  C4'      -18.6900  -11.8120   -2.0920 C.3   1301  BT51301     0.1802
     23  O4'      -17.6810  -10.8190   -2.1750 O.3   1301  BT51301    -0.3306
     24  C3'      -19.3960  -11.5640   -0.7920 C.3   1301  BT51301     0.2161
     25  O3'      -19.9740  -12.7460   -0.2210 O.3   1301  BT51301    -0.2175
     26  C2'      -18.3190  -10.9270    0.0790 C.3   1301  BT51301     0.2337
     27  O2'      -17.6180  -11.8550    0.8830 O.3   1301  BT51301    -0.2155
     28  C1'      -17.4020  -10.2330   -0.8930 C.3   1301  BT51301     0.2409
     29  N9       -17.6060   -8.7220   -1.0700 N.ar  1301  BT51301    -0.2693
     30  C8       -18.7200   -7.9490   -0.7910 C.ar  1301  BT51301     0.1816
     31  N7       -18.4770   -6.6500   -1.1110 N.ar  1301  BT51301    -0.2193
     32  C5       -17.2140   -6.5900   -1.5910 C.ar  1301  BT51301     0.1518
     33  C6       -16.4540   -5.5070   -2.0790 C.ar  1301  BT51301     0.1919
     34  N6       -16.9490   -4.2820   -2.1200 N.pl3 1301  BT51301    -0.1054
     35  N1       -15.1320   -5.7830   -2.5210 N.ar  1301  BT51301    -0.2040
     36  C2       -14.5770   -7.0780   -2.4930 C.ar  1301  BT51301     0.2016
     37  N3       -15.3470   -8.1460   -2.0110 N.ar  1301  BT51301    -0.2048
     38  C4       -16.6510   -7.8920   -1.5720 C.ar  1301  BT51301     0.1692
@<TRIPOS>BOND
     1     1     4    1
     2     1     3    2
     3     1     2    1
     4     2    17    1
     5     4     5    1
     6     5     6    1
     7     6     7    1
     8     7     8    1
     9     8    16    1
    10     8     9    1
    11     9    10    1
    12    10    11    1
    13    11    16    1
    14    11    12    1
    15    12    13   am
    16    13    15   am
    17    13    14    2
    18    15    16    1
    19    17    18    2
    20    17    19    1
    21    17    20    1
    22    20    21    1
    23    21    22    1
    24    22    23    1
    25    22    24    1
    26    23    28    1
    27    24    25    1
    28    24    26    1
    29    26    28    1
    30    26    27    1
    31    28    29    1
    32    29    38   ar
    33    29    30   ar
    34    30    31   ar
    35    31    32   ar
    36    32    33   ar
    37    32    38   ar
    38    33    35   ar
    39    33    34    1
    40    35    36   ar
    41    36    37   ar
    42    37    38   ar
