@<TRIPOS>MOLECULE
2xuu_ADP_1_ligand
   39    41     1     0     0
SMALL
NO_CHARGES


@<TRIPOS>ATOM
     1 PB          14.5020    -9.7550   -17.2250 P.3          1 ADP1303   0.0000
     2 O1B         14.5780    -8.2940   -17.6250 O.co2        1 ADP1303   0.0000
     3 O2B         13.9700   -10.6070   -18.3560 O.co2        1 ADP1303  -1.0000
     4 O3B         13.7700    -9.8690   -15.8390 O.co2        1 ADP1303  -1.0000
     5 PA          16.6020   -11.6180   -16.6530 P.3          1 ADP1303   0.0000
     6 O1A         15.9230   -12.5970   -17.5840 O.co2        1 ADP1303   0.0000
     7 O2A         16.5580   -11.7790   -15.1410 O.co2        1 ADP1303  -1.0000
     8 O3A         16.0780   -10.1280   -16.9050 O.3          1 ADP1303   0.0000
     9 O5'         18.1930   -11.5420   -17.0600 O.3          1 ADP1303   0.0000
    10 C5'         18.5720   -11.5060   -18.4690 C.3          1 ADP1303   0.0000
    11 C4'         19.3260   -12.7860   -18.8520 C.3          1 ADP1303   0.0000
    12 O4'         20.5570   -12.7980   -18.0730 O.3          1 ADP1303   0.0000
    13 C3'         18.6080   -14.1140   -18.6200 C.3          1 ADP1303   0.0000
    14 O3'         17.7600   -14.4550   -19.7400 O.3          1 ADP1303   0.0000
    15 C2'         19.8590   -15.0170   -18.4540 C.3          1 ADP1303   0.0000
    16 O2'         20.4370   -15.2050   -19.7960 O.3          1 ADP1303   0.0000
    17 C1'         20.8990   -14.1310   -17.7510 C.3          1 ADP1303   0.0000
    18 N9          20.7890   -14.2990   -16.2650 N.pl3        1 ADP1303   0.0000
    19 C8          19.8460   -13.7580   -15.4400 C.2          1 ADP1303   0.0000
    20 N7          20.0530   -14.1770   -14.1650 N.2          1 ADP1303   0.0000
    21 C5          21.1120   -15.0650   -14.2470 C.ar         1 ADP1303   0.0000
    22 C6          21.8480   -15.8630   -13.2600 C.ar         1 ADP1303   0.0000
    23 N6          21.4610   -15.8000   -11.9240 N.pl3        1 ADP1303   0.0000
    24 N1          22.8670   -16.5940   -13.7380 N.ar         1 ADP1303   0.0000
    25 C2          23.2870   -16.6410   -15.0050 C.ar         1 ADP1303   0.0000
    26 N3          22.6580   -15.9340   -15.9660 N.ar         1 ADP1303   0.0000
    27 C4          21.5800   -15.1400   -15.6050 C.ar         1 ADP1303   0.0000
    28 H5'1        19.1617   -10.7149   -18.6316 H            1 ADP1303   0.0000
    29 H5'2        17.7479   -11.4285   -19.0301 H            1 ADP1303   0.0000
    30 H4'         19.5695   -12.7274   -19.8201 H            1 ADP1303   0.0000
    31 H3'         18.0784   -14.0854   -17.7722 H            1 ADP1303   0.0000
    32 H5          17.6982   -15.4498   -19.8205 H            1 ADP1303   0.0000
    33 H2'         19.6733   -15.8745   -17.9741 H            1 ADP1303   0.0000
    34 H7          20.0316   -16.0131   -20.2233 H            1 ADP1303   0.0000
    35 H1'         21.8229   -14.3477   -18.0664 H            1 ADP1303   0.0000
    36 H9          19.1119   -13.1444   -15.7311 H            1 ADP1303   0.0000
    37 H10         21.9499   -16.3363   -11.2360 H            1 ADP1303   0.0000
    38 H11         20.6941   -15.2184   -11.6525 H            1 ADP1303   0.0000
    39 H12         24.0764   -17.2065   -15.2437 H            1 ADP1303   0.0000
@<TRIPOS>BOND
     1    1    2      ar
     2    1    3      ar
     3    1    4      ar
     4    1    8       1
     5    5    6      ar
     6    5    7      ar
     7    5    8       1
     8    5    9       1
     9    9   10       1
    10   10   11       1
    11   11   12       1
    12   11   13       1
    13   12   17       1
    14   13   14       1
    15   13   15       1
    16   15   16       1
    17   15   17       1
    18   17   18       1
    19   18   19       1
    20   18   27       1
    21   19   20       2
    22   20   21       1
    23   21   22      ar
    24   21   27      ar
    25   22   23       1
    26   22   24      ar
    27   24   25      ar
    28   25   26      ar
    29   26   27      ar
    30   25   39       1
    31   23   38       1
    32   23   37       1
    33   10   28       1
    34   10   29       1
    35   11   30       1
    36   13   31       1
    37   14   32       1
    38   15   33       1
    39   16   34       1
    40   17   35       1
    41   19   36       1
@<TRIPOS>SUBSTRUCTURE
     1 ADP1303     1 GROUP             4 A     ADP     0 **** ADP A1303
