@<TRIPOS>MOLECULE
3rfa_SAM_1_ligand
   49    51     1     0     0
SMALL
NO_CHARGES


@<TRIPOS>ATOM
     1 N          -21.6900     0.1350   -17.4630 N.3          1 SAM406   0.0000
     2 CA         -22.3220     0.2110   -16.1120 C.3          1 SAM406   0.0000
     3 C          -21.4850     1.0480   -15.1430 C.2          1 SAM406   0.0000
     4 O          -20.3440     1.4170   -15.4240 O.co2        1 SAM406   0.0000
     5 OXT        -21.9310     1.3650   -14.0420 O.co2        1 SAM406  -1.0000
     6 CB         -22.5500    -1.1810   -15.5220 C.3          1 SAM406   0.0000
     7 CG         -21.4950    -2.2320   -15.8590 C.3          1 SAM406   0.0000
     8 SD         -19.8630    -1.9310   -15.1320 S.3          1 SAM406   1.0000
     9 CE         -18.9700    -3.4630   -15.4860 C.3          1 SAM406   0.0000
    10 C5'        -20.2520    -2.1890   -13.3770 C.3          1 SAM406   0.0000
    11 C4'        -19.2080    -1.6410   -12.4070 C.3          1 SAM406   0.0000
    12 O4'        -18.0140    -2.4110   -12.4270 O.3          1 SAM406   0.0000
    13 C3'        -18.8150    -0.2130   -12.7520 C.3          1 SAM406   0.0000
    14 O3'        -19.0080     0.6180   -11.6280 O.3          1 SAM406   0.0000
    15 C2'        -17.3440    -0.3110   -13.1040 C.3          1 SAM406   0.0000
    16 O2'        -16.6340     0.8340   -12.7230 O.3          1 SAM406   0.0000
    17 C1'        -16.9030    -1.5380   -12.3290 C.3          1 SAM406   0.0000
    18 N9         -15.6510    -2.1350   -12.8460 N.pl3        1 SAM406   0.0000
    19 C8         -15.2770    -2.3130   -14.1600 C.2          1 SAM406   0.0000
    20 N7         -14.0520    -2.8990   -14.1870 N.2          1 SAM406   0.0000
    21 C5         -13.6350    -3.0970   -12.9170 C.ar         1 SAM406   0.0000
    22 C6         -12.4720    -3.6470   -12.3790 C.ar         1 SAM406   0.0000
    23 N6         -11.5040    -4.1070   -13.1700 N.pl3        1 SAM406   0.0000
    24 N1         -12.3240    -3.7150   -11.0070 N.ar         1 SAM406   0.0000
    25 C2         -13.3230    -3.2390   -10.1770 C.ar         1 SAM406   0.0000
    26 N3         -14.4740    -2.6890   -10.7170 N.ar         1 SAM406   0.0000
    27 C4         -14.6310    -2.6200   -12.0660 C.ar         1 SAM406   0.0000
    28 H1         -21.9323    -0.7332   -17.8960 H            1 SAM406   0.0000
    29 HA         -23.2130     0.6537   -16.2123 H            1 SAM406   0.0000
    30 HB1        -23.4316    -1.5143   -15.8563 H            1 SAM406   0.0000
    31 HB2        -22.5838    -1.0896   -14.5268 H            1 SAM406   0.0000
    32 HG1        -21.3920    -2.2616   -16.8532 H            1 SAM406   0.0000
    33 HG2        -21.8229    -3.1181   -15.5313 H            1 SAM406   0.0000
    34 HE1        -18.0415    -3.3997   -15.1202 H            1 SAM406   0.0000
    35 HE2        -19.4450    -4.2321   -15.0584 H            1 SAM406   0.0000
    36 HE3        -18.9297    -3.6044   -16.4751 H            1 SAM406   0.0000
    37 H5'1       -20.3393    -3.1724   -13.2182 H            1 SAM406   0.0000
    38 H5'2       -21.1245    -1.7411   -13.1819 H            1 SAM406   0.0000
    39 H4'        -19.5871    -1.6570   -11.4818 H            1 SAM406   0.0000
    40 H3'        -19.3437     0.1202   -13.5327 H            1 SAM406   0.0000
    41 H14        -19.6656     1.3367   -11.8538 H            1 SAM406   0.0000
    42 H2'        -17.2368    -0.4694   -14.0855 H            1 SAM406   0.0000
    43 H16        -16.2896     0.7180   -11.7914 H            1 SAM406   0.0000
    44 H1'        -16.7711    -1.2865   -11.3702 H            1 SAM406   0.0000
    45 H18        -15.8174    -2.0539   -14.9605 H            1 SAM406   0.0000
    46 H19        -10.6754    -4.4988   -12.7701 H            1 SAM406   0.0000
    47 H20        -11.6059    -4.0605   -14.1637 H            1 SAM406   0.0000
    48 H21        -13.2140    -3.2921    -9.1844 H            1 SAM406   0.0000
    49 H22        -22.0184     0.8921   -18.0277 H            1 SAM406   0.0000
@<TRIPOS>BOND
     1    1    2       1
     2    2    3       1
     3    2    6       1
     4    3    4      ar
     5    3    5      ar
     6    6    7       1
     7    7    8       1
     8    8    9       1
     9    8   10       1
    10   10   11       1
    11   11   12       1
    12   11   13       1
    13   12   17       1
    14   13   14       1
    15   13   15       1
    16   15   16       1
    17   15   17       1
    18   17   18       1
    19   18   19       1
    20   18   27       1
    21   19   20       2
    22   20   21       1
    23   21   22      ar
    24   21   27      ar
    25   22   23       1
    26   22   24      ar
    27   24   25      ar
    28   25   26      ar
    29   26   27      ar
    30   25   48       1
    31    1   28       1
    32    2   29       1
    33    1   49       1
    34    6   30       1
    35    6   31       1
    36    7   32       1
    37    7   33       1
    38    9   34       1
    39    9   35       1
    40    9   36       1
    41   10   37       1
    42   10   38       1
    43   11   39       1
    44   13   40       1
    45   14   41       1
    46   15   42       1
    47   16   43       1
    48   17   44       1
    49   19   45       1
    50   23   46       1
    51   23   47       1
@<TRIPOS>SUBSTRUCTURE
     1 SAM406      1 GROUP             4 A     SAM     0 **** SAM A 406
