@<TRIPOS>MOLECULE
3wbw_NDP_1_ligand
   73    77     1     0     0
SMALL
NO_CHARGES


@<TRIPOS>ATOM
     1 PA           5.5490    -0.1550    17.3070 P.3          1 NDP302   0.0000
     2 O1A          5.0750     1.2280    17.5270 O.co2        1 NDP302   0.0000
     3 O2A          5.4880    -0.8620    15.9580 O.co2        1 NDP302  -1.0000
     4 O5B          4.7740    -1.0490    18.4130 O.3          1 NDP302   0.0000
     5 C5B          5.0260    -2.4650    18.4590 C.3          1 NDP302   0.0000
     6 C4B          4.3560    -3.0230    19.7060 C.3          1 NDP302   0.0000
     7 O4B          2.9350    -3.0120    19.5380 O.3          1 NDP302   0.0000
     8 C3B          4.7770    -4.4520    19.9730 C.3          1 NDP302   0.0000
     9 O3B          4.8440    -4.6010    21.4030 O.3          1 NDP302   0.0000
    10 C2B          3.6400    -5.3000    19.4270 C.3          1 NDP302   0.0000
    11 O2B          3.5110    -6.5440    20.1860 O.3          1 NDP302   0.0000
    12 C1B          2.4170    -4.3580    19.4520 C.3          1 NDP302   0.0000
    13 N9A          1.5210    -4.5120    18.2600 N.pl3        1 NDP302   0.0000
    14 C8A          1.9020    -4.5700    16.9530 C.2          1 NDP302   0.0000
    15 N7A          0.8180    -4.7200    16.1420 N.2          1 NDP302   0.0000
    16 C5A         -0.2800    -4.7470    16.9540 C.ar         1 NDP302   0.0000
    17 C6A         -1.6590    -4.8920    16.7190 C.ar         1 NDP302   0.0000
    18 N6A         -2.1670    -5.0470    15.4800 N.pl3        1 NDP302   0.0000
    19 N1A         -2.5150    -4.9030    17.7740 N.ar         1 NDP302   0.0000
    20 C2A         -2.0620    -4.7630    19.0370 C.ar         1 NDP302   0.0000
    21 N3A         -0.7440    -4.6350    19.2970 N.ar         1 NDP302   0.0000
    22 C4A          0.1680    -4.6200    18.2750 C.ar         1 NDP302   0.0000
    23 O3           7.1130    -0.3630    17.6630 O.3          1 NDP302   0.0000
    24 PN           7.8450    -0.5190    19.0940 P.3          1 NDP302   0.0000
    25 O1N          7.5200    -1.8270    19.7630 O.co2        1 NDP302   0.0000
    26 O2N          7.6480     0.7400    19.9020 O.co2        1 NDP302  -1.0000
    27 O5D          9.3350    -0.6920    18.4630 O.3          1 NDP302   0.0000
    28 C5D          9.8770     0.1380    17.4240 C.3          1 NDP302   0.0000
    29 C4D         10.1030    -0.5010    16.0350 C.3          1 NDP302   0.0000
    30 O4D         10.6680     0.5350    15.2060 O.3          1 NDP302   0.0000
    31 C3D         11.0840    -1.6860    15.9110 C.3          1 NDP302   0.0000
    32 O3D         10.5380    -2.6630    15.0340 O.3          1 NDP302   0.0000
    33 C2D         12.3640    -1.1930    15.2450 C.3          1 NDP302   0.0000
    34 O2D         12.6900    -1.9080    14.0330 O.3          1 NDP302   0.0000
    35 C1D         12.0700     0.2750    14.9180 C.3          1 NDP302   0.0000
    36 N1N         12.9660     1.1350    15.7030 N.ar         1 NDP302   1.0000
    37 C2N         13.8310     1.9360    15.0530 C.ar         1 NDP302   0.0000
    38 C3N         14.6970     2.7610    15.7930 C.ar         1 NDP302   0.0000
    39 C7N         15.6790     3.6810    15.1180 C.2          1 NDP302   0.0000
    40 O7N         16.4700     4.2530    15.8590 O.2          1 NDP302   0.0000
    41 N7N         15.6510     3.8420    13.7800 N.am         1 NDP302   0.0000
    42 C4N         14.6700     2.7450    17.1980 C.ar         1 NDP302   0.0000
    43 C5N         13.7710     1.8960    17.8380 C.ar         1 NDP302   0.0000
    44 C6N         12.9350     1.1090    17.0460 C.ar         1 NDP302   0.0000
    45 P2B          3.7780    -7.9650    19.4530 P.3          1 NDP302   0.0000
    46 O1X          3.7040    -9.0460    20.5090 O.co2        1 NDP302   0.0000
    47 O2X          5.1480    -7.9120    18.8570 O.co2        1 NDP302  -1.0000
    48 O3X          2.6510    -8.0460    18.4410 O.co2        1 NDP302  -1.0000
    49 H5B1         6.0110    -2.6330    18.4992 H            1 NDP302   0.0000
    50 H5B2         4.6460    -2.9037    17.6447 H            1 NDP302   0.0000
    51 H4B          4.5992    -2.4555    20.4926 H            1 NDP302   0.0000
    52 H3B          5.6486    -4.6713    19.5347 H            1 NDP302   0.0000
    53 H5           5.1201    -5.5354    21.6282 H            1 NDP302   0.0000
    54 H2B          3.8442    -5.5291    18.4753 H            1 NDP302   0.0000
    55 H1B          1.8851    -4.5481    20.2772 H            1 NDP302   0.0000
    56 H8A          2.8476    -4.5106    16.6332 H            1 NDP302   0.0000
    57 H6A1        -3.1539    -5.1471    15.3531 H            1 NDP302   0.0000
    58 H6A2        -1.5570    -5.0619    14.6877 H            1 NDP302   0.0000
    59 H2A         -2.7149    -4.7539    19.7944 H            1 NDP302   0.0000
    60 H5D1        10.7618     0.4767    17.7440 H            1 NDP302   0.0000
    61 H5D2         9.2506     0.9076    17.2999 H            1 NDP302   0.0000
    62 H4D          9.2183    -0.7723    15.6559 H            1 NDP302   0.0000
    63 H3D         11.2792    -2.0821    16.8082 H            1 NDP302   0.0000
    64 H16         11.1540    -2.7953    14.2574 H            1 NDP302   0.0000
    65 H2D         13.1265    -1.2514    15.8894 H            1 NDP302   0.0000
    66 H18         13.2657    -2.6950    14.2549 H            1 NDP302   0.0000
    67 H1D         12.2374     0.4320    13.9447 H            1 NDP302   0.0000
    68 H2N         13.8576     1.9443    14.0534 H            1 NDP302   0.0000
    69 H7N1        16.3054     4.4542    13.3363 H            1 NDP302   0.0000
    70 H7N2        14.9758     3.3492    13.2311 H            1 NDP302   0.0000
    71 H4N         15.2836     3.3311    17.7270 H            1 NDP302   0.0000
    72 H5N         13.7260     1.8518    18.8360 H            1 NDP302   0.0000
    73 H6N         12.2841     0.4987    17.4975 H            1 NDP302   0.0000
@<TRIPOS>BOND
     1    1    2      ar
     2    1    3      ar
     3    1    4       1
     4    1   23       1
     5    4    5       1
     6    5    6       1
     7    6    7       1
     8    6    8       1
     9    7   12       1
    10    8    9       1
    11    8   10       1
    12   10   11       1
    13   10   12       1
    14   11   45       1
    15   12   13       1
    16   13   14       1
    17   13   22       1
    18   14   15       2
    19   15   16       1
    20   16   17      ar
    21   16   22      ar
    22   17   18       1
    23   17   19      ar
    24   19   20      ar
    25   20   21      ar
    26   21   22      ar
    27   23   24       1
    28   24   25      ar
    29   24   26      ar
    30   24   27       1
    31   27   28       1
    32   28   29       1
    33   29   30       1
    34   29   31       1
    35   30   35       1
    36   31   32       1
    37   31   33       1
    38   33   34       1
    39   33   35       1
    40   35   36       1
    41   36   37      ar
    42   36   44      ar
    43   37   38      ar
    44   38   39       1
    45   38   42      ar
    46   39   40       2
    47   39   41      am
    48   42   43      ar
    49   43   44      ar
    50   45   46      ar
    51   45   47      ar
    52   45   48      ar
    53   43   72       1
    54    5   49       1
    55    5   50       1
    56    6   51       1
    57    8   52       1
    58    9   53       1
    59   10   54       1
    60   12   55       1
    61   14   56       1
    62   18   57       1
    63   18   58       1
    64   20   59       1
    65   44   73       1
    66   28   60       1
    67   28   61       1
    68   29   62       1
    69   31   63       1
    70   32   64       1
    71   33   65       1
    72   34   66       1
    73   35   67       1
    74   37   68       1
    75   41   69       1
    76   41   70       1
    77   42   71       1
@<TRIPOS>SUBSTRUCTURE
     1 NDP302      1 GROUP             4 A     NDP     0 **** NDP A 302
