@<TRIPOS>MOLECULE
5tgz_FMN_1_ligand
   50    52     1     0     0
SMALL
USER_CHARGES


@<TRIPOS>ATOM
     1 N1          34.5860    -5.2440   263.9510 N.2          1 FMN2002   0.0000
     2 C2          33.9450    -4.4500   263.0190 C.2          1 FMN2002   0.0000
     3 O2          34.3480    -3.3090   262.7980 O.2          1 FMN2002   0.0000
     4 N3          32.8500    -4.9320   262.3360 N.pl3        1 FMN2002   0.0000
     5 C4          32.3940    -6.2120   262.5800 C.2          1 FMN2002   0.0000
     6 O4          31.4150    -6.6310   261.9630 O.2          1 FMN2002   0.0000
     7 C4A         33.0380    -7.0200   263.5160 C.2          1 FMN2002   0.0000
     8 N5          32.5850    -8.3030   263.7610 N.2          1 FMN2002   0.0000
     9 C5A         33.2270    -9.0990   264.6940 C.ar         1 FMN2002   0.0000
    10 C6          32.7640   -10.3910   264.9360 C.ar         1 FMN2002   0.0000
    11 C7          33.3990   -11.2070   265.8690 C.ar         1 FMN2002   0.0000
    12 C7M         32.8460   -12.5890   266.0780 C.3          1 FMN2002   0.0000
    13 C8          34.5090   -10.7260   266.5630 C.ar         1 FMN2002   0.0000
    14 C8M         35.2260   -11.5700   267.5760 C.3          1 FMN2002   0.0000
    15 C9          34.9660    -9.4350   266.3220 C.ar         1 FMN2002   0.0000
    16 C9A         34.3340    -8.6140   265.3870 C.ar         1 FMN2002   0.0000
    17 N10         34.7880    -7.3250   265.1360 N.pl3        1 FMN2002   0.0000
    18 C10         34.1420    -6.5300   264.2050 C.2          1 FMN2002   0.0000
    19 C1'         35.9780    -6.7650   265.8620 C.3          1 FMN2002   0.0000
    20 C2'         35.5430    -6.1680   267.1920 C.3          1 FMN2002   0.0000
    21 O2'         34.6350    -5.1050   266.9640 O.3          1 FMN2002   0.0000
    22 C3'         36.8270    -5.7760   267.8960 C.3          1 FMN2002   0.0000
    23 O3'         37.3820    -6.9860   268.3800 O.3          1 FMN2002   0.0000
    24 C4'         36.6520    -4.7300   268.9920 C.3          1 FMN2002   0.0000
    25 O4'         37.9200    -4.1930   269.2330 O.3          1 FMN2002   0.0000
    26 C5'         36.1400    -5.2930   270.3070 C.3          1 FMN2002   0.0000
    27 O5'         35.4480    -4.3030   271.0380 O.3          1 FMN2002   0.0000
    28 P           35.3010    -4.4090   272.6450 P.3          1 FMN2002   0.0000
    29 O1P         35.2600    -3.0180   273.2390 O.co2        1 FMN2002  -0.5000
    30 O2P         34.0470    -5.1750   273.0070 O.co2        1 FMN2002  -0.5000
    31 O3P         36.4950    -5.1200   273.2340 O.co2        1 FMN2002  -0.5000
    32 H1          32.3858    -4.3551   261.6639 H            1 FMN2002   0.0000
    33 H2          31.9694   -10.7349   264.4357 H            1 FMN2002   0.0000
    34 H7M1        33.3904   -13.0649   266.7687 H            1 FMN2002   0.0000
    35 H7M2        31.8972   -12.5251   266.3873 H            1 FMN2002   0.0000
    36 H7M3        32.8825   -13.0964   265.2170 H            1 FMN2002   0.0000
    37 H8M1        35.9893   -11.0516   267.9615 H            1 FMN2002   0.0000
    38 H8M2        34.5925   -11.8237   268.3069 H            1 FMN2002   0.0000
    39 H8M3        35.5739   -12.3971   267.1345 H            1 FMN2002   0.0000
    40 H9          35.7582    -9.0902   266.8255 H            1 FMN2002   0.0000
    41 H1'1        36.4023    -6.0530   265.3025 H            1 FMN2002   0.0000
    42 H1'2        36.6391    -7.4967   266.0279 H            1 FMN2002   0.0000
    43 H2'         35.0835    -6.8757   267.7287 H            1 FMN2002   0.0000
    44 H13         33.7011    -5.4621   266.9474 H            1 FMN2002   0.0000
    45 H3'         37.4524    -5.4026   267.2108 H            1 FMN2002   0.0000
    46 H15         38.2385    -6.7920   268.8584 H            1 FMN2002   0.0000
    47 H4'         36.0369    -4.0089   268.6731 H            1 FMN2002   0.0000
    48 H17         38.5877    -4.6322   268.6320 H            1 FMN2002   0.0000
    49 H5'1        36.9150    -5.6192   270.8483 H            1 FMN2002   0.0000
    50 H5'2        35.5206    -6.0551   270.1188 H            1 FMN2002   0.0000
@<TRIPOS>BOND
     1    1    2       1
     2    1   18       2
     3    2    3       2
     4    2    4       1
     5    4    5       1
     6    5    6       2
     7    5    7       1
     8    7    8       2
     9    7   18       1
    10    8    9       1
    11    9   10      ar
    12    9   16      ar
    13   10   11      ar
    14   11   12       1
    15   11   13      ar
    16   13   14       1
    17   13   15      ar
    18   15   16      ar
    19   16   17       1
    20   17   18       1
    21   17   19       1
    22   19   20       1
    23   20   21       1
    24   20   22       1
    25   22   23       1
    26   22   24       1
    27   24   25       1
    28   24   26       1
    29   26   27       1
    30   27   28       1
    31   28   29      ar
    32   28   30      ar
    33   28   31      ar
    34    4   32       1
    35   10   33       1
    36   12   34       1
    37   12   35       1
    38   12   36       1
    39   14   37       1
    40   14   38       1
    41   14   39       1
    42   15   40       1
    43   19   41       1
    44   19   42       1
    45   20   43       1
    46   21   44       1
    47   22   45       1
    48   23   46       1
    49   24   47       1
    50   25   48       1
    51   26   49       1
    52   26   50       1
@<TRIPOS>SUBSTRUCTURE
     1 FMN2002     1 GROUP             4 A     FMN     0 **** FMN A2002
