@<TRIPOS>MOLECULE
3iew_CDP_3_ligand
   37    38     1     0     0
SMALL
NO_CHARGES


@<TRIPOS>ATOM
     1 O3B         33.5660   -35.4400   -28.1050 O.co2        1 CDP901   0.0000
     2 PB          33.2090   -34.3870   -27.0700 P.3          1 CDP901   0.0000
     3 O1B         33.9980   -33.0890   -27.1840 O.co2        1 CDP901  -1.0000
     4 O2B         31.7260   -34.1550   -26.9100 O.co2        1 CDP901  -1.0000
     5 O3A         33.6440   -35.1030   -25.6770 O.3          1 CDP901   0.0000
     6 PA          34.9100   -34.7510   -24.7340 P.3          1 CDP901   0.0000
     7 O1A         36.0070   -34.0420   -25.5040 O.co2        1 CDP901   0.0000
     8 O2A         34.4470   -34.1170   -23.4490 O.co2        1 CDP901  -1.0000
     9 O5'         35.3950   -36.2450   -24.4150 O.3          1 CDP901   0.0000
    10 C5'         35.7990   -37.0960   -25.4770 C.3          1 CDP901   0.0000
    11 C4'         36.4790   -38.3520   -24.9370 C.3          1 CDP901   0.0000
    12 O4'         37.6540   -38.0720   -24.1630 O.3          1 CDP901   0.0000
    13 C3'         35.6090   -39.1750   -23.9970 C.3          1 CDP901   0.0000
    14 O3'         34.6370   -39.9660   -24.6950 O.3          1 CDP901   0.0000
    15 C2'         36.6450   -39.9960   -23.2420 C.3          1 CDP901   0.0000
    16 O2'         36.9790   -41.1720   -23.9890 O.3          1 CDP901   0.0000
    17 C1'         37.8600   -39.0870   -23.1620 C.3          1 CDP901   0.0000
    18 N1          38.0850   -38.4070   -21.8690 N.pl3        1 CDP901   0.0000
    19 C2          39.0600   -38.8610   -20.9570 C.2          1 CDP901   0.0000
    20 O2          39.7170   -39.8840   -21.2200 O.2          1 CDP901   0.0000
    21 N3          39.2950   -38.1990   -19.7940 N.2          1 CDP901   0.0000
    22 C4          38.5900   -37.0870   -19.4820 C.2          1 CDP901   0.0000
    23 N4          38.8070   -36.4230   -18.3250 N.pl3        1 CDP901   0.0000
    24 C5          37.6340   -36.6150   -20.3690 C.2          1 CDP901   0.0000
    25 C6          37.4020   -37.2880   -21.5640 C.2          1 CDP901   0.0000
    26 H5'1        36.4399   -36.6037   -26.0659 H            1 CDP901   0.0000
    27 H5'2        34.9946   -37.3615   -26.0085 H            1 CDP901   0.0000
    28 H4'         36.7404   -38.9280   -25.7116 H            1 CDP901   0.0000
    29 H3'         35.1415   -38.5638   -23.3584 H            1 CDP901   0.0000
    30 H5          33.8281   -40.0846   -24.1192 H            1 CDP901   0.0000
    31 H2'         36.3158   -40.2342   -22.3283 H            1 CDP901   0.0000
    32 H7          36.1571   -41.7251   -24.1251 H            1 CDP901   0.0000
    33 H1'         38.6762   -39.6145   -23.3977 H            1 CDP901   0.0000
    34 H9          38.2759   -35.6029   -18.1120 H            1 CDP901   0.0000
    35 H10         39.4987   -36.7518   -17.6820 H            1 CDP901   0.0000
    36 H11         37.1116   -35.7910   -20.1495 H            1 CDP901   0.0000
    37 H12         36.7193   -36.9361   -22.2044 H            1 CDP901   0.0000
@<TRIPOS>BOND
     1    1    2      ar
     2    2    3      ar
     3    2    4      ar
     4    2    5       1
     5    5    6       1
     6    6    7      ar
     7    6    8      ar
     8    6    9       1
     9    9   10       1
    10   10   11       1
    11   11   12       1
    12   11   13       1
    13   12   17       1
    14   13   14       1
    15   13   15       1
    16   15   16       1
    17   15   17       1
    18   17   18       1
    19   18   19       1
    20   18   25       1
    21   19   20       2
    22   19   21       1
    23   21   22       2
    24   22   23       1
    25   22   24       1
    26   24   25       2
    27   25   37       1
    28   24   36       1
    29   23   35       1
    30   10   26       1
    31   10   27       1
    32   11   28       1
    33   13   29       1
    34   14   30       1
    35   15   31       1
    36   16   32       1
    37   17   33       1
    38   23   34       1
@<TRIPOS>SUBSTRUCTURE
     1 CDP901      1 GROUP             4 C     CDP     0 **** CDP C 901
