@<TRIPOS>MOLECULE
3oyz_ACO_1_ligand
   85    87     1     0     0
SMALL
NO_CHARGES


@<TRIPOS>ATOM
     1 N1A        -32.2280    -7.6590    42.0270 N.ar         1 ACO434   0.0000
     2 C2A        -33.3340    -8.3200    41.6340 C.ar         1 ACO434   0.0000
     3 N3A        -33.7760    -8.2350    40.3670 N.ar         1 ACO434   0.0000
     4 C4A        -33.1670    -7.4770    39.4190 C.ar         1 ACO434   0.0000
     5 C5A        -31.9480    -6.7430    39.8220 C.ar         1 ACO434   0.0000
     6 C6A        -31.5090    -6.8390    41.2270 C.ar         1 ACO434   0.0000
     7 N6A        -30.4130    -6.1090    41.5660 N.pl3        1 ACO434   0.0000
     8 N7A        -31.5110    -6.0650    38.7530 N.2          1 ACO434   0.0000
     9 C8A        -32.3820    -6.3180    37.7470 C.2          1 ACO434   0.0000
    10 N9A        -33.3280    -7.1890    38.1230 N.pl3        1 ACO434   0.0000
    11 C1B        -34.4130    -7.6810    37.2140 C.3          1 ACO434   0.0000
    12 C2B        -34.8540    -6.5130    36.3420 C.3          1 ACO434   0.0000
    13 O2B        -35.8440    -5.7630    37.0440 O.3          1 ACO434   0.0000
    14 C3B        -35.3600    -7.1960    35.0870 C.3          1 ACO434   0.0000
    15 O3B        -36.6480    -7.6720    35.4890 O.3          1 ACO434   0.0000
    16 P3B        -37.9130    -8.0150    34.4910 P.3          1 ACO434   0.0000
    17 O7A        -37.8070    -9.5320    34.4960 O.co2        1 ACO434   0.0000
    18 O8A        -37.5030    -7.2690    33.2380 O.co2        1 ACO434  -1.0000
    19 O9A        -39.1520    -7.4310    35.1320 O.co2        1 ACO434  -1.0000
    20 C4B        -34.3960    -8.3630    34.9500 C.3          1 ACO434   0.0000
    21 O4B        -33.9660    -8.6820    36.2810 O.3          1 ACO434   0.0000
    22 C5B        -33.1600    -7.9830    34.1430 C.3          1 ACO434   0.0000
    23 O5B        -32.8230    -6.6430    34.5060 O.3          1 ACO434   0.0000
    24 P1A        -31.7640    -5.7700    33.6750 P.3          1 ACO434   0.0000
    25 O1A        -32.2090    -5.3840    32.3010 O.co2        1 ACO434   0.0000
    26 O2A        -30.5110    -6.5960    33.7030 O.co2        1 ACO434  -1.0000
    27 O3A        -31.4610    -4.3980    34.4430 O.3          1 ACO434   0.0000
    28 P2A        -32.5030    -3.1810    34.4680 P.3          1 ACO434   0.0000
    29 O4A        -33.7560    -3.9530    34.7290 O.co2        1 ACO434   0.0000
    30 O5A        -32.1050    -2.2260    33.3620 O.co2        1 ACO434  -1.0000
    31 O6A        -32.1620    -2.3040    35.7950 O.3          1 ACO434   0.0000
    32 CBP        -30.7810    -1.4460    37.6410 C.3          1 ACO434   0.0000
    33 CCP        -30.8600    -1.8160    36.1550 C.3          1 ACO434   0.0000
    34 CDP        -31.8010    -0.3630    37.9880 C.3          1 ACO434   0.0000
    35 CEP        -29.3950    -0.8590    37.8750 C.3          1 ACO434   0.0000
    36 CAP        -31.0670    -2.6370    38.5640 C.3          1 ACO434   0.0000
    37 OAP        -30.2760    -3.6930    38.0370 O.3          1 ACO434   0.0000
    38 C9P        -30.6670    -2.4190    40.0090 C.2          1 ACO434   0.0000
    39 O9P        -31.3250    -1.6540    40.7220 O.2          1 ACO434   0.0000
    40 N8P        -29.5680    -3.0680    40.4290 N.am         1 ACO434   0.0000
    41 C7P        -29.1350    -2.9150    41.8120 C.3          1 ACO434   0.0000
    42 C6P        -28.4960    -1.5500    42.1090 C.3          1 ACO434   0.0000
    43 C5P        -27.8760    -1.6930    43.4870 C.2          1 ACO434   0.0000
    44 O5P        -27.9560    -2.7650    44.0840 O.2          1 ACO434   0.0000
    45 N4P        -27.2200    -0.6240    43.9360 N.am         1 ACO434   0.0000
    46 C3P        -26.5180    -0.5610    45.2060 C.3          1 ACO434   0.0000
    47 C2P        -25.2740    -1.4530    45.2140 C.3          1 ACO434   0.0000
    48 S1P        -24.0700    -0.3140    44.5970 S.3          1 ACO434   0.0000
    49 C          -23.5720     0.7120    45.8360 C.2          1 ACO434   0.0000
    50 O          -24.1850     0.8560    46.8760 O.2          1 ACO434   0.0000
    51 CH3        -22.3320     1.5130    45.5830 C.3          1 ACO434   0.0000
    52 H2A        -33.8332    -8.8817    42.2937 H            1 ACO434   0.0000
    53 H6A1       -29.9634    -5.5349    40.8817 H            1 ACO434   0.0000
    54 H6A2       -30.0566    -6.1463    42.4996 H            1 ACO434   0.0000
    55 H8A        -32.3260    -5.9062    36.8375 H            1 ACO434   0.0000
    56 H1B        -35.1845    -8.0252    37.7491 H            1 ACO434   0.0000
    57 H2B        -34.0707    -5.9305    36.1249 H            1 ACO434   0.0000
    58 H7         -35.3996    -5.0501    37.5865 H            1 ACO434   0.0000
    59 H3B        -35.3843    -6.5982    34.2857 H            1 ACO434   0.0000
    60 H4B        -34.8557    -9.1480    34.5347 H            1 ACO434   0.0000
    61 H5B1       -33.3591    -8.0344    33.1644 H            1 ACO434   0.0000
    62 H5B2       -32.4035    -8.5992    34.3621 H            1 ACO434   0.0000
    63 HCP1       -30.6561    -1.0041    35.6080 H            1 ACO434   0.0000
    64 HCP2       -30.1833    -2.5265    35.9620 H            1 ACO434   0.0000
    65 HDP1       -31.7311    -0.1384    38.9600 H            1 ACO434   0.0000
    66 HDP2       -31.6172     0.4550    37.4429 H            1 ACO434   0.0000
    67 HDP3       -32.7223    -0.6966    37.7883 H            1 ACO434   0.0000
    68 HEP1       -29.2997    -0.6025    38.8368 H            1 ACO434   0.0000
    69 HEP2       -28.7008    -1.5398    37.6412 H            1 ACO434   0.0000
    70 HEP3       -29.2746    -0.0493    37.3006 H            1 ACO434   0.0000
    71 HAP        -32.0355    -2.8807    38.5132 H            1 ACO434   0.0000
    72 H21        -30.7232    -4.5683    38.2211 H            1 ACO434   0.0000
    73 H8P        -29.0529    -3.6496    39.7994 H            1 ACO434   0.0000
    74 H7P1       -28.4643    -3.6287    42.0141 H            1 ACO434   0.0000
    75 H7P2       -29.9310    -3.0275    42.4068 H            1 ACO434   0.0000
    76 H6P1       -29.1903    -0.8304    42.1097 H            1 ACO434   0.0000
    77 H6P2       -27.7945    -1.3357    41.4293 H            1 ACO434   0.0000
    78 H4P        -27.2102     0.1922    43.3583 H            1 ACO434   0.0000
    79 H3P1       -27.1361    -0.8613    45.9325 H            1 ACO434   0.0000
    80 H3P2       -26.2393     0.3844    45.3750 H            1 ACO434   0.0000
    81 H2P1       -25.3805    -2.2429    44.6101 H            1 ACO434   0.0000
    82 H2P2       -25.0489    -1.7666    46.1365 H            1 ACO434   0.0000
    83 HH31       -22.1338     2.0817    46.3813 H            1 ACO434   0.0000
    84 HH32       -21.5642     0.8947    45.4153 H            1 ACO434   0.0000
    85 HH33       -22.4701     2.0975    44.7834 H            1 ACO434   0.0000
@<TRIPOS>BOND
     1    1    2      ar
     2    1    6      ar
     3    2    3      ar
     4    3    4      ar
     5    4    5      ar
     6    4   10       1
     7    5    6      ar
     8    5    8       1
     9    6    7       1
    10    8    9       2
    11    9   10       1
    12   10   11       1
    13   11   12       1
    14   11   21       1
    15   12   13       1
    16   12   14       1
    17   14   15       1
    18   14   20       1
    19   15   16       1
    20   16   17      ar
    21   16   18      ar
    22   16   19      ar
    23   20   21       1
    24   20   22       1
    25   22   23       1
    26   23   24       1
    27   24   25      ar
    28   24   26      ar
    29   24   27       1
    30   27   28       1
    31   28   29      ar
    32   28   30      ar
    33   28   31       1
    34   31   33       1
    35   32   33       1
    36   32   34       1
    37   32   35       1
    38   32   36       1
    39   36   37       1
    40   36   38       1
    41   38   39       2
    42   38   40      am
    43   40   41       1
    44   41   42       1
    45   42   43       1
    46   43   44       2
    47   43   45      am
    48   45   46       1
    49   46   47       1
    50   47   48       1
    51   48   49       1
    52   49   50       2
    53   49   51       1
    54    2   52       1
    55    7   53       1
    56    7   54       1
    57    9   55       1
    58   11   56       1
    59   12   57       1
    60   13   58       1
    61   14   59       1
    62   51   85       1
    63   51   84       1
    64   20   60       1
    65   22   61       1
    66   22   62       1
    67   51   83       1
    68   47   82       1
    69   33   63       1
    70   33   64       1
    71   34   65       1
    72   34   66       1
    73   34   67       1
    74   35   68       1
    75   35   69       1
    76   35   70       1
    77   36   71       1
    78   37   72       1
    79   40   73       1
    80   41   74       1
    81   41   75       1
    82   42   76       1
    83   42   77       1
    84   45   78       1
    85   46   79       1
    86   46   80       1
    87   47   81       1
@<TRIPOS>SUBSTRUCTURE
     1 ACO434      1 GROUP             4 A     ACO     0 **** ACO A 434
