@<TRIPOS>MOLECULE
1e0j_ANP_4_ligand
   44    46     1     0     0
SMALL
NO_CHARGES


@<TRIPOS>ATOM
     1 PG          45.2350    41.8490   167.4990 P.3          1 ANP700   0.0000
     2 O1G         44.9940    40.9160   166.3700 O.co2        1 ANP700   0.0000
     3 O2G         46.6840    42.1640   167.8200 O.co2        1 ANP700  -1.0000
     4 O3G         44.2900    43.0920   167.5490 O.co2        1 ANP700  -1.0000
     5 PB          44.9900    39.4540   169.1900 P.3          1 ANP700   0.0000
     6 O1B         46.3760    39.2920   169.8350 O.co2        1 ANP700   0.0000
     7 O2B         44.5810    38.5530   168.0730 O.co2        1 ANP700  -1.0000
     8 N3B         44.6830    40.9850   168.7030 N.3          1 ANP700   0.0000
     9 PA          44.0520    38.3800   171.6870 P.3          1 ANP700   0.0000
    10 O1A         44.7670    37.0530   171.3510 O.co2        1 ANP700   0.0000
    11 O2A         44.5910    39.2460   172.7910 O.co2        1 ANP700  -1.0000
    12 O3A         43.9610    39.2820   170.3710 O.3          1 ANP700   0.0000
    13 O5'         42.5210    38.1330   172.0100 O.3          1 ANP700   0.0000
    14 C5'         41.6350    39.2350   172.2720 C.3          1 ANP700   0.0000
    15 C4'         40.6350    38.8320   173.3670 C.3          1 ANP700   0.0000
    16 O4'         39.9100    37.6570   172.9160 O.3          1 ANP700   0.0000
    17 C3'         41.2680    38.4530   174.7380 C.3          1 ANP700   0.0000
    18 O3'         40.4050    38.9200   175.8310 O.3          1 ANP700   0.0000
    19 C2'         41.3270    36.9230   174.6780 C.3          1 ANP700   0.0000
    20 O2'         41.3150    36.2850   175.9880 O.3          1 ANP700   0.0000
    21 C1'         40.0590    36.5960   173.8490 C.3          1 ANP700   0.0000
    22 N9          40.1210    35.3420   173.0470 N.pl3        1 ANP700   0.0000
    23 C8          41.2600    34.6760   172.5850 C.2          1 ANP700   0.0000
    24 N7          40.9920    33.5800   171.8950 N.2          1 ANP700   0.0000
    25 C5          39.5910    33.5100   171.9030 C.ar         1 ANP700   0.0000
    26 C6          38.6850    32.5720   171.3540 C.ar         1 ANP700   0.0000
    27 N6          39.0660    31.4800   170.6600 N.pl3        1 ANP700   0.0000
    28 N1          37.3270    32.7990   171.5520 N.ar         1 ANP700   0.0000
    29 C2          36.9410    33.8910   172.2550 C.ar         1 ANP700   0.0000
    30 N3          37.7040    34.8400   172.8180 N.ar         1 ANP700   0.0000
    31 C4          39.0440    34.5810   172.6140 C.ar         1 ANP700   0.0000
    32 H3B         44.9068    41.5353   169.5074 H            1 ANP700   0.0000
    33 H5'1        41.1387    39.4708   171.4365 H            1 ANP700   0.0000
    34 H5'2        42.1659    40.0251   172.5785 H            1 ANP700   0.0000
    35 H4'         39.9862    39.5803   173.5051 H            1 ANP700   0.0000
    36 H3'         42.1864    38.8394   174.8226 H            1 ANP700   0.0000
    37 H6          39.9145    39.7416   175.5406 H            1 ANP700   0.0000
    38 H2'         42.1415    36.6377   174.1728 H            1 ANP700   0.0000
    39 H8          42.1494    35.7462   176.1040 H            1 ANP700   0.0000
    40 H1'         39.2626    36.5676   174.4531 H            1 ANP700   0.0000
    41 H10         42.1904    34.9982   172.7599 H            1 ANP700   0.0000
    42 H11         38.3770    30.8531   170.2963 H            1 ANP700   0.0000
    43 H12         40.0375    31.2972   170.5092 H            1 ANP700   0.0000
    44 H13         35.9542    34.0050   172.3697 H            1 ANP700   0.0000
@<TRIPOS>BOND
     1    1    2      ar
     2    1    3      ar
     3    1    4      ar
     4    1    8       1
     5    5    6      ar
     6    5    7      ar
     7    5    8       1
     8    5   12       1
     9    9   10      ar
    10    9   11      ar
    11    9   12       1
    12    9   13       1
    13   13   14       1
    14   14   15       1
    15   15   16       1
    16   15   17       1
    17   16   21       1
    18   17   18       1
    19   17   19       1
    20   19   20       1
    21   19   21       1
    22   21   22       1
    23   22   23       1
    24   22   31       1
    25   23   24       2
    26   24   25       1
    27   25   26      ar
    28   25   31      ar
    29   26   27       1
    30   26   28      ar
    31   28   29      ar
    32   29   30      ar
    33   30   31      ar
    34   29   44       1
    35   27   43       1
    36   27   42       1
    37    8   32       1
    38   23   41       1
    39   14   33       1
    40   14   34       1
    41   15   35       1
    42   17   36       1
    43   18   37       1
    44   19   38       1
    45   20   39       1
    46   21   40       1
@<TRIPOS>SUBSTRUCTURE
     1 ANP700      1 GROUP             4 E     ANP     0 **** ANP E 700
