@<TRIPOS>MOLECULE
2dji_FAD_1_ligand
   84    89     1     0     0
SMALL
NO_CHARGES


@<TRIPOS>ATOM
     1 PA          28.5190    21.6400    12.0380 P.3          1 FAD1601   0.0000
     2 O1A         29.9270    21.4340    12.4560 O.co2        1 FAD1601   0.0000
     3 O2A         27.6860    20.4710    11.6570 O.co2        1 FAD1601  -1.0000
     4 O5B         28.4870    22.6230    10.7890 O.3          1 FAD1601   0.0000
     5 C5B         29.0650    23.9240    10.9010 C.3          1 FAD1601   0.0000
     6 C4B         28.8860    24.6830     9.6140 C.3          1 FAD1601   0.0000
     7 O4B         29.4510    26.0110     9.7680 O.3          1 FAD1601   0.0000
     8 C3B         29.5810    24.0570     8.4040 C.3          1 FAD1601   0.0000
     9 O3B         28.6680    23.9360     7.3170 O.3          1 FAD1601   0.0000
    10 C2B         30.7500    24.9990     8.1200 C.3          1 FAD1601   0.0000
    11 O2B         31.1490    25.0240     6.7670 O.3          1 FAD1601   0.0000
    12 C1B         30.2070    26.3340     8.6170 C.3          1 FAD1601   0.0000
    13 N9A         31.2210    27.3120     9.0170 N.pl3        1 FAD1601   0.0000
    14 C8A         32.4010    27.1210     9.7030 C.2          1 FAD1601   0.0000
    15 N7A         33.0800    28.2250     9.9080 N.2          1 FAD1601   0.0000
    16 C5A         32.2990    29.2110     9.3220 C.ar         1 FAD1601   0.0000
    17 C6A         32.4530    30.6210     9.1960 C.ar         1 FAD1601   0.0000
    18 N6A         33.4990    31.2980     9.6790 N.pl3        1 FAD1601   0.0000
    19 N1A         31.4760    31.3140     8.5460 N.ar         1 FAD1601   0.0000
    20 C2A         30.4150    30.6350     8.0550 C.ar         1 FAD1601   0.0000
    21 N3A         30.1600    29.3180     8.1130 N.ar         1 FAD1601   0.0000
    22 C4A         31.1490    28.6600     8.7640 C.ar         1 FAD1601   0.0000
    23 N1          22.2350    18.6630    17.8320 N.2          1 FAD1601   0.0000
    24 C2          21.0370    19.3300    17.8030 C.2          1 FAD1601   0.0000
    25 O2          20.9540    20.4480    17.3430 O.2          1 FAD1601   0.0000
    26 N3          19.9090    18.6990    18.3230 N.pl3        1 FAD1601   0.0000
    27 C4          19.9170    17.4460    18.8860 C.2          1 FAD1601   0.0000
    28 O4          18.8650    16.9420    19.3350 O.2          1 FAD1601   0.0000
    29 C4X         21.1620    16.7800    18.9450 C.2          1 FAD1601   0.0000
    30 N5          21.2700    15.5310    19.5320 N.2          1 FAD1601   0.0000
    31 C5X         22.4930    14.9030    19.6130 C.ar         1 FAD1601   0.0000
    32 C6          22.5980    13.6670    20.2440 C.ar         1 FAD1601   0.0000
    33 C7          23.8140    12.9970    20.3750 C.ar         1 FAD1601   0.0000
    34 C7M         23.8650    11.6650    21.0800 C.3          1 FAD1601   0.0000
    35 C8          24.9840    13.6120    19.8290 C.ar         1 FAD1601   0.0000
    36 C8M         26.3360    12.9560    19.9400 C.3          1 FAD1601   0.0000
    37 C9          24.8920    14.8540    19.1740 C.ar         1 FAD1601   0.0000
    38 C9A         23.6530    15.5250    19.0580 C.ar         1 FAD1601   0.0000
    39 N10         23.5290    16.7840    18.4260 N.pl3        1 FAD1601   0.0000
    40 C10         22.2970    17.4220    18.3920 C.2          1 FAD1601   0.0000
    41 C1'         24.6840    17.4730    17.7670 C.3          1 FAD1601   0.0000
    42 C2'         24.3720    17.2540    16.2630 C.3          1 FAD1601   0.0000
    43 O2'         24.4770    15.8920    15.9280 O.3          1 FAD1601   0.0000
    44 C3'         25.3160    18.0540    15.3440 C.3          1 FAD1601   0.0000
    45 O3'         26.6790    17.6750    15.4950 O.3          1 FAD1601   0.0000
    46 C4'         25.3130    19.5680    15.5350 C.3          1 FAD1601   0.0000
    47 O4'         23.9630    20.0330    15.6690 O.3          1 FAD1601   0.0000
    48 C5'         25.9560    20.2550    14.3320 C.3          1 FAD1601   0.0000
    49 O5'         25.9920    21.6290    14.6930 O.3          1 FAD1601   0.0000
    50 P           26.4130    22.8430    13.7650 P.3          1 FAD1601   0.0000
    51 O1P         25.4710    22.9260    12.6290 O.co2        1 FAD1601   0.0000
    52 O2P         26.6330    24.0250    14.6440 O.co2        1 FAD1601  -1.0000
    53 O3P         27.8550    22.5910    13.1550 O.3          1 FAD1601   0.0000
    54 H5B1        30.0411    23.8361    11.0999 H            1 FAD1601   0.0000
    55 H5B2        28.6170    24.4220    11.6435 H            1 FAD1601   0.0000
    56 H4B         27.9086    24.7666     9.4197 H            1 FAD1601   0.0000
    57 H3B         29.9312    23.1531     8.6495 H            1 FAD1601   0.0000
    58 H5          28.3275    24.8419     7.0652 H            1 FAD1601   0.0000
    59 H2B         31.5300    24.7321     8.6860 H            1 FAD1601   0.0000
    60 H7          30.6368    25.7325     6.2815 H            1 FAD1601   0.0000
    61 H1B         29.6089    26.7339     7.9225 H            1 FAD1601   0.0000
    62 H8A         32.7113    26.2233    10.0159 H            1 FAD1601   0.0000
    63 H6A1        33.5514    32.2894     9.5592 H            1 FAD1601   0.0000
    64 H6A2        34.2293    30.8132    10.1603 H            1 FAD1601   0.0000
    65 H2A         29.7272    31.1884     7.5852 H            1 FAD1601   0.0000
    66 H13         19.0383    19.1893    18.2839 H            1 FAD1601   0.0000
    67 H14         21.7720    13.2442    20.6168 H            1 FAD1601   0.0000
    68 H7M1        24.8059    11.3263    21.0850 H            1 FAD1601   0.0000
    69 H7M2        23.5448    11.7735    22.0211 H            1 FAD1601   0.0000
    70 H7M3        23.2781    11.0119    20.6014 H            1 FAD1601   0.0000
    71 H8M1        27.0240    13.5341    19.5014 H            1 FAD1601   0.0000
    72 H8M2        26.5691    12.8340    20.9048 H            1 FAD1601   0.0000
    73 H8M3        26.3121    12.0646    19.4875 H            1 FAD1601   0.0000
    74 H21         25.7149    15.2680    18.7849 H            1 FAD1601   0.0000
    75 H1'1        25.5536    17.0509    18.0232 H            1 FAD1601   0.0000
    76 H1'2        24.7056    18.4462    17.9960 H            1 FAD1601   0.0000
    77 H2'         23.4334    17.5513    16.0881 H            1 FAD1601   0.0000
    78 H25         25.4061    15.5733    16.1155 H            1 FAD1601   0.0000
    79 H3'         25.0510    17.8662    14.3982 H            1 FAD1601   0.0000
    80 H27         27.1607    17.8112    14.6293 H            1 FAD1601   0.0000
    81 H4'         25.8264    19.7986    16.3616 H            1 FAD1601   0.0000
    82 H29         23.5375    19.5971    16.4620 H            1 FAD1601   0.0000
    83 H5'1        25.4043    20.1189    13.5092 H            1 FAD1601   0.0000
    84 H5'2        26.8797    19.9051    14.1757 H            1 FAD1601   0.0000
@<TRIPOS>BOND
     1    1    2      ar
     2    1    3      ar
     3    1    4       1
     4    1   53       1
     5    4    5       1
     6    5    6       1
     7    6    7       1
     8    6    8       1
     9    7   12       1
    10    8    9       1
    11    8   10       1
    12   10   11       1
    13   10   12       1
    14   12   13       1
    15   13   14       1
    16   13   22       1
    17   14   15       2
    18   15   16       1
    19   16   17      ar
    20   16   22      ar
    21   17   18       1
    22   17   19      ar
    23   19   20      ar
    24   20   21      ar
    25   21   22      ar
    26   23   24       1
    27   23   40       2
    28   24   25       2
    29   24   26       1
    30   26   27       1
    31   27   28       2
    32   27   29       1
    33   29   30       2
    34   29   40       1
    35   30   31       1
    36   31   32      ar
    37   31   38      ar
    38   32   33      ar
    39   33   34       1
    40   33   35      ar
    41   35   36       1
    42   35   37      ar
    43   37   38      ar
    44   38   39       1
    45   39   40       1
    46   39   41       1
    47   41   42       1
    48   42   43       1
    49   42   44       1
    50   44   45       1
    51   44   46       1
    52   46   47       1
    53   46   48       1
    54   48   49       1
    55   49   50       1
    56   50   51      ar
    57   50   52      ar
    58   50   53       1
    59   48   84       1
    60    5   54       1
    61    5   55       1
    62    6   56       1
    63    8   57       1
    64    9   58       1
    65   10   59       1
    66   11   60       1
    67   12   61       1
    68   14   62       1
    69   18   63       1
    70   18   64       1
    71   20   65       1
    72   26   66       1
    73   32   67       1
    74   34   68       1
    75   34   69       1
    76   34   70       1
    77   36   71       1
    78   36   72       1
    79   36   73       1
    80   37   74       1
    81   41   75       1
    82   41   76       1
    83   42   77       1
    84   43   78       1
    85   44   79       1
    86   45   80       1
    87   46   81       1
    88   47   82       1
    89   48   83       1
@<TRIPOS>SUBSTRUCTURE
     1 FAD1601     1 GROUP             4 A     FAD     0 **** FAD A1601
