@<TRIPOS>MOLECULE
2giu_FBR_1_ligand
   39    41     1     0     0
SMALL
NO_CHARGES


@<TRIPOS>ATOM
     1 C1          22.9210     9.0370   115.3330 C.3          1 FBR600   0.0000
     2 C2          22.4450     8.0850   116.4500 C.3          1 FBR600   0.0000
     3 C3          20.9070     8.1950   116.5030 C.3          1 FBR600   0.0000
     4 C4          20.3470     7.7940   115.1540 C.2          1 FBR600   0.0000
     5 O5          19.2410     7.3180   115.1040 O.2          1 FBR600   0.0000
     6 C6          21.1430     8.0220   113.9260 C.2          1 FBR600   0.0000
     7 BR7         20.4090     7.1960   112.5220 Br           1 FBR600   0.0000
     8 C8          22.3490     8.6250   113.9990 C.2          1 FBR600   0.0000
     9 C9          23.4070     8.7370   112.9720 C.ar         1 FBR600   0.0000
    10 C10         23.3580     8.6780   111.5750 C.ar         1 FBR600   0.0000
    11 C11         24.5470     8.8530   110.8570 C.ar         1 FBR600   0.0000
    12 C12         25.7740     9.0260   111.5250 C.ar         1 FBR600   0.0000
    13 O13         26.9270     9.1090   110.8390 O.3          1 FBR600   0.0000
    14 C14         25.8120     9.0600   112.9240 C.ar         1 FBR600   0.0000
    15 C15         24.6150     8.9510   113.6350 C.ar         1 FBR600   0.0000
    16 C16         24.4460     9.0220   115.1340 C.3          1 FBR600   0.0000
    17 C17         22.4130    10.4820   115.5210 C.3          1 FBR600   0.0000
    18 C18         23.1370    11.2900   116.6040 C.3          1 FBR600   0.0000
    19 C19         22.2290    12.2960   117.3190 C.3          1 FBR600   0.0000
    20 C20         23.0160    12.8190   118.5400 C.3          1 FBR600   0.0000
    21 H1          22.8402     8.3583   117.3270 H            1 FBR600   0.0000
    22 H2          22.7160     7.1455   116.2405 H            1 FBR600   0.0000
    23 H3          20.6436     9.1371   116.7105 H            1 FBR600   0.0000
    24 H4          20.5499     7.5854   117.2107 H            1 FBR600   0.0000
    25 H5          22.4933     8.5145   111.1001 H            1 FBR600   0.0000
    26 H6          24.5244     8.8551   109.8573 H            1 FBR600   0.0000
    27 H7          26.9205     9.0478   109.8409 H            1 FBR600   0.0000
    28 H8          26.6822     9.1607   113.4064 H            1 FBR600   0.0000
    29 H9          24.8549     8.2239   115.5765 H            1 FBR600   0.0000
    30 H10         24.8609     9.8550   115.4999 H            1 FBR600   0.0000
    31 H11         21.4433    10.4406   115.7616 H            1 FBR600   0.0000
    32 H12         22.5204    10.9637   114.6513 H            1 FBR600   0.0000
    33 H13         23.8900    11.7902   116.1765 H            1 FBR600   0.0000
    34 H14         23.5026    10.6538   117.2834 H            1 FBR600   0.0000
    35 H15         21.3871    11.8473   117.6187 H            1 FBR600   0.0000
    36 H16         22.0032    13.0526   116.7053 H            1 FBR600   0.0000
    37 H17         22.4569    13.4820   119.0378 H            1 FBR600   0.0000
    38 H18         23.2423    12.0542   119.1432 H            1 FBR600   0.0000
    39 H19         23.8585    13.2595   118.2298 H            1 FBR600   0.0000
@<TRIPOS>BOND
     1    1    2       1
     2    1    8       1
     3    1   16       1
     4    1   17       1
     5    2    3       1
     6    3    4       1
     7    4    5       2
     8    4    6       1
     9    6    7       1
    10    6    8       2
    11    8    9       1
    12    9   10      ar
    13    9   15      ar
    14   10   11      ar
    15   11   12      ar
    16   12   13       1
    17   12   14      ar
    18   14   15      ar
    19   15   16       1
    20   17   18       1
    21   18   19       1
    22   19   20       1
    23    2   21       1
    24    2   22       1
    25    3   23       1
    26    3   24       1
    27   10   25       1
    28   11   26       1
    29   13   27       1
    30   14   28       1
    31   16   29       1
    32   16   30       1
    33   17   31       1
    34   17   32       1
    35   18   33       1
    36   18   34       1
    37   19   35       1
    38   19   36       1
    39   20   37       1
    40   20   38       1
    41   20   39       1
@<TRIPOS>SUBSTRUCTURE
     1 FBR600      1 GROUP             4 A     FBR     0 **** FBR A 600
