@<TRIPOS>MOLECULE
./coach420/1x7p/ligand.pdb
 27 29 0 0 0
SMALL
GASTEIGER

@<TRIPOS>ATOM
      1  N         45.7320   14.0090   73.2210 N.3   301  SAM301     -0.1208
      2  CA        46.3890   12.7580   73.6340 C.3   301  SAM301      0.1952
      3  C         46.1010   11.7150   72.5580 C.2   301  SAM301      0.3819
      4  O         46.6800   11.8390   71.4610 O.co2 301  SAM301     -0.2441
      5  OXT       45.3050   10.7800   72.7900 O.co2 301  SAM301     -0.2441
      6  CB        45.9870   12.2080   75.0230 C.3   301  SAM301      0.0414
      7  CG        46.0450   13.1910   76.1950 C.3   301  SAM301      0.0503
      8  SD        46.7070   12.5540   77.7780 S.3   301  SAM301     -0.1761
      9  CE        46.2630   10.8080   77.8390 C.3   301  SAM301      0.0590
     10  C5'       45.6420   13.3420   79.0140 C.3   301  SAM301      0.0805
     11  C4'       46.1510   14.7060   79.4770 C.3   301  SAM301      0.1602
     12  O4'       47.2230   14.5530   80.3790 O.3   301  SAM301     -0.3324
     13  C3'       46.7160   15.6300   78.4070 C.3   301  SAM301      0.2144
     14  O3'       45.7380   16.3850   77.7750 O.3   301  SAM301     -0.2176
     15  C2'       47.6390   16.5110   79.1890 C.3   301  SAM301      0.2336
     16  O2'       46.9360   17.5160   79.8590 O.3   301  SAM301     -0.2155
     17  C1'       48.1970   15.5480   80.1950 C.3   301  SAM301      0.2409
     18  N9        49.4550   14.9560   79.7070 N.ar  301  SAM301     -0.2693
     19  C8        49.7020   13.6460   79.4020 C.ar  301  SAM301      0.1816
     20  N7        50.9920   13.4960   79.0240 N.ar  301  SAM301     -0.2193
     21  C5        51.5920   14.7030   79.1010 C.ar  301  SAM301      0.1518
     22  C6        52.8930   15.1220   78.8310 C.ar  301  SAM301      0.1919
     23  N6        53.8220   14.2920   78.3740 N.pl3 301  SAM301     -0.1054
     24  N1        53.1870   16.4460   78.9770 N.ar  301  SAM301     -0.2040
     25  C2        52.2190   17.3410   79.4110 C.ar  301  SAM301      0.2016
     26  N3        50.9310   16.9390   79.6770 N.ar  301  SAM301     -0.2048
     27  C4        50.6270   15.6300   79.5190 C.ar  301  SAM301      0.1692
@<TRIPOS>BOND
     1     1     2    1
     2     2     3    1
     3     2     6    1
     4     3     4   ar
     5     3     5   ar
     6     6     7    1
     7     7     8    1
     8     8     9    1
     9     8    10    1
    10    10    11    1
    11    11    13    1
    12    11    12    1
    13    12    17    1
    14    13    14    1
    15    13    15    1
    16    15    16    1
    17    15    17    1
    18    17    18    1
    19    18    19   ar
    20    18    27   ar
    21    19    20   ar
    22    20    21   ar
    23    21    22   ar
    24    21    27   ar
    25    22    23    1
    26    22    24   ar
    27    24    25   ar
    28    25    26   ar
    29    26    27   ar
