@<TRIPOS>MOLECULE
5htx_ADP_1_ligand
   39    41     1     0     0
SMALL
NO_CHARGES


@<TRIPOS>ATOM
     1 PB         -11.6220    -6.8250   172.7530 P.3          1 ADP501   0.0000
     2 O1B        -12.5230    -6.4710   171.5730 O.co2        1 ADP501   0.0000
     3 O2B        -12.0920    -8.0580   173.3770 O.co2        1 ADP501  -1.0000
     4 O3B        -11.6130    -5.7220   173.7830 O.co2        1 ADP501  -1.0000
     5 PA          -8.9420    -6.3550   171.5780 P.3          1 ADP501   0.0000
     6 O1A         -9.1840    -4.9170   171.0900 O.co2        1 ADP501   0.0000
     7 O2A         -7.7450    -6.3850   172.5890 O.co2        1 ADP501  -1.0000
     8 O3A        -10.1700    -7.1470   172.2510 O.3          1 ADP501   0.0000
     9 O5'         -8.5420    -7.2470   170.3410 O.3          1 ADP501   0.0000
    10 C5'         -8.3220    -8.6400   170.6030 C.3          1 ADP501   0.0000
    11 C4'         -8.1380    -9.2900   169.1900 C.3          1 ADP501   0.0000
    12 O4'         -6.8440    -8.6640   168.6900 O.3          1 ADP501   0.0000
    13 C3'         -7.9350   -10.5860   169.1970 C.3          1 ADP501   0.0000
    14 O3'         -9.0650   -11.2380   168.5550 O.3          1 ADP501   0.0000
    15 C2'         -6.6300   -10.8660   168.2650 C.3          1 ADP501   0.0000
    16 O2'         -6.9460   -11.9630   167.3250 O.3          1 ADP501   0.0000
    17 C1'         -6.3380    -9.6850   167.6820 C.3          1 ADP501   0.0000
    18 N9          -4.9290    -9.5290   167.5590 N.pl3        1 ADP501   0.0000
    19 C8          -3.9160    -9.7450   168.4210 C.2          1 ADP501   0.0000
    20 N7          -2.7680    -9.5270   167.7690 N.2          1 ADP501   0.0000
    21 C5          -3.0750    -9.1440   166.4940 C.ar         1 ADP501   0.0000
    22 C6          -2.2270    -8.8240   165.4260 C.ar         1 ADP501   0.0000
    23 N6          -0.8060    -8.8290   165.4570 N.pl3        1 ADP501   0.0000
    24 N1          -2.7590    -8.5300   164.2340 N.ar         1 ADP501   0.0000
    25 C2          -4.1260    -8.5050   164.0940 C.ar         1 ADP501   0.0000
    26 N3          -4.9530    -8.8290   165.1420 N.ar         1 ADP501   0.0000
    27 C4          -4.4140    -9.1410   166.3470 C.ar         1 ADP501   0.0000
    28 H5'1        -9.1091    -9.0383   171.0739 H            1 ADP501   0.0000
    29 H5'2        -7.5009    -8.7682   171.1592 H            1 ADP501   0.0000
    30 H4'         -8.9015    -9.0539   168.5889 H            1 ADP501   0.0000
    31 H3'         -7.7980   -10.9277   170.1268 H            1 ADP501   0.0000
    32 H5          -8.7451   -11.7523   167.7593 H            1 ADP501   0.0000
    33 H2'         -5.8650   -11.1426   168.8466 H            1 ADP501   0.0000
    34 H7          -6.3125   -12.7223   167.4737 H            1 ADP501   0.0000
    35 H1'         -6.7969    -9.5879   166.7988 H            1 ADP501   0.0000
    36 H9          -4.0062   -10.0196   169.3783 H            1 ADP501   0.0000
    37 H10         -0.2871    -8.5840   164.6380 H            1 ADP501   0.0000
    38 H11         -0.3251    -9.0775   166.2978 H            1 ADP501   0.0000
    39 H12         -4.5254    -8.2466   163.2144 H            1 ADP501   0.0000
@<TRIPOS>BOND
     1    1    2      ar
     2    1    3      ar
     3    1    4      ar
     4    1    8       1
     5    5    6      ar
     6    5    7      ar
     7    5    8       1
     8    5    9       1
     9    9   10       1
    10   10   11       1
    11   11   12       1
    12   11   13       1
    13   12   17       1
    14   13   14       1
    15   13   15       1
    16   15   16       1
    17   15   17       1
    18   17   18       1
    19   18   19       1
    20   18   27       1
    21   19   20       2
    22   20   21       1
    23   21   22      ar
    24   21   27      ar
    25   22   23       1
    26   22   24      ar
    27   24   25      ar
    28   25   26      ar
    29   26   27      ar
    30   25   39       1
    31   23   38       1
    32   23   37       1
    33   10   28       1
    34   10   29       1
    35   11   30       1
    36   13   31       1
    37   14   32       1
    38   15   33       1
    39   16   34       1
    40   17   35       1
    41   19   36       1
@<TRIPOS>SUBSTRUCTURE
     1 ADP501      1 GROUP             4 A     ADP     0 **** ADP A 501
