@<TRIPOS>MOLECULE
1y7l_ASN_LEU_ASN_ILE_1_ligand
   69    68     4     0     0
SMALL
NO_CHARGES


@<TRIPOS>ATOM
     1 N           21.0670     3.8800    44.8260 N.4          1 ASN264   1.0000
     2 CA          20.5660     4.3580    43.5450 C.3          1 ASN264   0.0000
     3 C           21.0740     3.4510    42.3870 C.2          1 ASN264   0.0000
     4 O           21.1680     3.7650    41.2520 O.2          1 ASN264   0.0000
     5 CB          20.8620     5.8670    43.4590 C.3          1 ASN264   0.0000
     6 CG          19.8950     6.6030    44.3500 C.2          1 ASN264   0.0000
     7 OD1         20.2960     7.2900    45.2650 O.2          1 ASN264   0.0000
     8 ND2         18.5980     6.4450    44.0780 N.am         1 ASN264   0.0000
     9 H1          20.5096     3.1096    45.1354 H            1 ASN264   0.0000
    10 H2          22.0167     3.5842    44.7231 H            1 ASN264   0.0000
    11 HA          19.5710     4.2611    43.5710 H            1 ASN264   0.0000
    12 HB1         20.7523     6.1778    42.5149 H            1 ASN264   0.0000
    13 HB2         21.7987     6.0435    43.7614 H            1 ASN264   0.0000
    14 HD21        17.9100     6.9092    44.6358 H            1 ASN264   0.0000
    15 HD22        18.3142     5.8624    43.3164 H            1 ASN264   0.0000
    16 N           21.4310     2.3070    42.5150 N.am         2 LEU265   0.0000
    17 CA          21.9060     1.2050    41.6590 C.3          2 LEU265   0.0000
    18 C           20.7800     0.2000    41.4840 C.2          2 LEU265   0.0000
    19 O           20.8180    -0.7030    40.6470 O.2          2 LEU265   0.0000
    20 CB          23.0890     0.5300    42.3590 C.3          2 LEU265   0.0000
    21 CG          24.2750     1.4670    42.5820 C.3          2 LEU265   0.0000
    22 CD1         25.2580     0.8460    43.5480 C.3          2 LEU265   0.0000
    23 CD2         24.9490     1.8190    41.2640 C.3          2 LEU265   0.0000
    24 H8          21.3947     2.0256    43.4739 H            2 LEU265   0.0000
    25 H9          22.1909     1.5601    40.7686 H            2 LEU265   0.0000
    26 H10         23.3935    -0.2390    41.7969 H            2 LEU265   0.0000
    27 H11         22.7805     0.1915    43.2480 H            2 LEU265   0.0000
    28 HG          23.9304     2.3124    42.9901 H            2 LEU265   0.0000
    29 HD11        26.0287     1.4683    43.6854 H            2 LEU265   0.0000
    30 HD12        24.8046     0.6786    44.4234 H            2 LEU265   0.0000
    31 HD13        25.5911    -0.0196    43.1742 H            2 LEU265   0.0000
    32 H16         25.7201     2.4317    41.4371 H            2 LEU265   0.0000
    33 H17         25.2792     0.9835    40.8249 H            2 LEU265   0.0000
    34 HD23        24.2906     2.2732    40.6638 H            2 LEU265   0.0000
    35 N           19.7500     0.4200    42.3210 N.am         3 ASN266   0.0000
    36 CA          18.5620    -0.4180    42.2950 C.3          3 ASN266   0.0000
    37 C           17.6310     0.0660    41.2430 C.2          3 ASN266   0.0000
    38 O           16.4730     0.3880    41.4610 O.2          3 ASN266   0.0000
    39 CB          17.8050    -0.4380    43.6030 C.3          3 ASN266   0.0000
    40 CG          17.0630    -1.7480    43.7290 C.2          3 ASN266   0.0000
    41 OD1         17.5300    -2.7640    43.2190 O.2          3 ASN266   0.0000
    42 ND2         15.9110    -1.7380    44.3860 N.am         3 ASN266   0.0000
    43 H19         19.8025     1.1752    42.9743 H            3 ASN266   0.0000
    44 H20         18.8367    -1.3532    42.0716 H            3 ASN266   0.0000
    45 H21         17.1521     0.3192    43.6230 H            3 ASN266   0.0000
    46 H22         18.4482    -0.3437    44.3629 H            3 ASN266   0.0000
    47 H23         15.3885    -2.5840    44.4920 H            3 ASN266   0.0000
    48 H24         15.5649    -0.8844    44.7754 H            3 ASN266   0.0000
    49 N           18.2020     0.1170    40.0930 N.am         4 ILE267   0.0000
    50 CA          17.4470     0.5300    38.9710 C.3          4 ILE267   0.0000
    51 C           16.8480    -0.6590    38.2400 C.2          4 ILE267   0.0000
    52 O           15.7120    -0.6120    37.7800 O.co2        4 ILE267   0.0000
    53 CB          18.3460     1.3400    38.0420 C.3          4 ILE267   0.0000
    54 CG1         18.7150     2.6730    38.6950 C.3          4 ILE267   0.0000
    55 CG2         17.6510     1.5770    36.7220 C.3          4 ILE267   0.0000
    56 CD1         19.7540     3.3990    38.1840 C.3          4 ILE267   0.0000
    57 OXT         17.4370    -1.7270    38.1390 O.co2        4 ILE267  -1.0000
    58 H25         19.1654    -0.1316    39.9931 H            4 ILE267   0.0000
    59 H26         16.7024     1.1182    39.2868 H            4 ILE267   0.0000
    60 HB          19.1846     0.8216    37.8746 H            4 ILE267   0.0000
    61 HG11        18.9358     2.4792    39.6509 H            4 ILE267   0.0000
    62 HG12        17.9027     3.2546    38.6518 H            4 ILE267   0.0000
    63 HG21        18.2485     2.1082    36.1214 H            4 ILE267   0.0000
    64 HG22        17.4426     0.6983    36.2925 H            4 ILE267   0.0000
    65 HG23        16.8018     2.0814    36.8783 H            4 ILE267   0.0000
    66 H33         19.8684     4.2376    38.7166 H            4 ILE267   0.0000
    67 H34         20.5935     2.8576    38.2303 H            4 ILE267   0.0000
    68 H35         19.5604     3.6330    37.2312 H            4 ILE267   0.0000
    69 H36         21.0188     4.6179    45.4991 H            4 ILE267   0.0000
@<TRIPOS>BOND
     1    1    2       1
     2    2    5       1
     3    2    3       1
     4    5    6       1
     5    6    7       2
     6    6    8      am
     7    3    4       2
     8    1    9       1
     9    1   10       1
    10    2   11       1
    11    3   16      am
    12    5   12       1
    13    5   13       1
    14    8   14       1
    15    8   15       1
    16   16   17       1
    17   17   20       1
    18   17   18       1
    19   20   21       1
    20   21   22       1
    21   21   23       1
    22   18   19       2
    23   23   34       1
    24   16   24       1
    25   17   25       1
    26   18   35      am
    27   20   26       1
    28   20   27       1
    29   21   28       1
    30   22   29       1
    31   22   30       1
    32   22   31       1
    33   23   32       1
    34   23   33       1
    35   35   36       1
    36   36   39       1
    37   36   37       1
    38   39   40       1
    39   40   41       2
    40   40   42      am
    41   37   38       2
    42   42   48       1
    43   35   43       1
    44   36   44       1
    45   37   49      am
    46   39   45       1
    47   39   46       1
    48   42   47       1
    49   49   50       1
    50   50   53       1
    51   50   51       1
    52   53   55       1
    53   53   54       1
    54   54   56       1
    55   51   52      ar
    56   51   57      ar
    57   56   68       1
    58   49   58       1
    59   50   59       1
    60   53   60       1
    61   54   61       1
    62   54   62       1
    63   55   63       1
    64   55   64       1
    65   55   65       1
    66   56   66       1
    67   56   67       1
    68    1   69       1
@<TRIPOS>SUBSTRUCTURE
     1 ASN264      1 RESIDUE           4 P     ASN     0 **** ASN P 264
     2 LEU265     16 RESIDUE           4 P     LEU     0 **** LEU P 265
     3 ASN266     35 RESIDUE           4 P     ASN     0 **** ASN P 266
     4 ILE267     49 RESIDUE           4 P     ILE     0 **** ILE P 267
