@<TRIPOS>MOLECULE
2rr1_W8R_1_ligand
   54    56     1     0     0
SMALL
NO_CHARGES


@<TRIPOS>ATOM
     1 O1          46.6100    -4.1860   121.7380 O.2          1 W8R900   0.0000
     2 N2          47.7500    -4.9810   121.4400 N.2          1 W8R900   0.0000
     3 C3          48.5950    -4.7610   122.3900 C.2          1 W8R900   0.0000
     4 C31         49.9170    -5.4480   122.3850 C.3          1 W8R900   0.0000
     5 C4          48.0810    -3.8540   123.3220 C.2          1 W8R900   0.0000
     6 C5          46.8570    -3.5220   122.8880 C.2          1 W8R900   0.0000
     7 C1C         45.7880    -2.6310   123.3950 C.3          1 W8R900   0.0000
     8 C2C         44.6580    -2.4040   122.4070 C.3          1 W8R900   0.0000
     9 C3C         43.7780    -1.2220   122.7890 C.3          1 W8R900   0.0000
    10 C4C         42.5200    -1.5750   123.5260 C.3          1 W8R900   0.0000
    11 C5C         41.8100    -0.3820   124.1460 C.3          1 W8R900   0.0000
    12 C6C         40.8520     0.2970   123.1960 C.3          1 W8R900   0.0000
    13 C7C         40.6300     1.7500   123.4930 C.3          1 W8R900   0.0000
    14 O1B         39.7870     1.8140   124.6640 O.3          1 W8R900   0.0000
    15 C1B         39.1620     2.9900   124.9880 C.ar         1 W8R900   0.0000
    16 C2B         39.2270     3.6180   126.2340 C.ar         1 W8R900   0.0000
    17 C3B         38.5800     4.8170   126.4260 C.ar         1 W8R900   0.0000
    18 C4B         37.8530     5.4050   125.4000 C.ar         1 W8R900   0.0000
    19 C5B         37.7620     4.7490   124.1640 C.ar         1 W8R900   0.0000
    20 C6B         38.4110     3.5570   123.9650 C.ar         1 W8R900   0.0000
    21 C2A         37.2340     6.7150   125.5870 C.2          1 W8R900   0.0000
    22 N3A         37.4050     7.5680   126.7230 N.2          1 W8R900   0.0000
    23 C4A         36.7270     8.7400   126.6110 C.3          1 W8R900   0.0000
    24 CM1         35.6750     9.4270   127.3890 C.3          1 W8R900   0.0000
    25 C5A         36.0930     8.5040   125.2520 C.3          1 W8R900   0.0000
    26 O1A         36.4490     7.2780   124.7290 O.3          1 W8R900   0.0000
    27 H1          50.4427    -5.1651   123.1872 H            1 W8R900   0.0000
    28 H2          49.7783    -6.4380   122.4095 H            1 W8R900   0.0000
    29 H3          50.4174    -5.2020   121.5549 H            1 W8R900   0.0000
    30 H4          48.5358    -3.5198   124.1475 H            1 W8R900   0.0000
    31 H1C1        46.1952    -1.7450   123.6169 H            1 W8R900   0.0000
    32 H1C2        45.4047    -3.0387   124.2238 H            1 W8R900   0.0000
    33 H2C1        44.0917    -3.2275   122.3728 H            1 W8R900   0.0000
    34 H2C2        45.0514    -2.2322   121.5038 H            1 W8R900   0.0000
    35 H3C1        43.5209    -0.7435   121.9494 H            1 W8R900   0.0000
    36 H3C2        44.3157    -0.6108   123.3697 H            1 W8R900   0.0000
    37 H4C1        42.7533    -2.2165   124.2568 H            1 W8R900   0.0000
    38 H4C2        41.8925    -2.0153   122.8838 H            1 W8R900   0.0000
    39 H5C1        42.4985     0.2838   124.4336 H            1 W8R900   0.0000
    40 H5C2        41.2968    -0.6968   124.9444 H            1 W8R900   0.0000
    41 H6C1        39.9710    -0.1732   123.2477 H            1 W8R900   0.0000
    42 H6C2        41.2184     0.2175   122.2690 H            1 W8R900   0.0000
    43 H7C1        40.1783     2.1942   122.7193 H            1 W8R900   0.0000
    44 H7C2        41.5038     2.2017   123.6730 H            1 W8R900   0.0000
    45 H2B         39.7409     3.1985   126.9823 H            1 W8R900   0.0000
    46 H3B         38.6341     5.2704   127.3156 H            1 W8R900   0.0000
    47 H5B         37.2220     5.1516   123.4249 H            1 W8R900   0.0000
    48 H6B         38.3436     3.0944   123.0810 H            1 W8R900   0.0000
    49 H4A         37.4299     9.4337   126.4538 H            1 W8R900   0.0000
    50 HM11        35.4490    10.2962   126.9491 H            1 W8R900   0.0000
    51 HM12        34.8587     8.8507   127.4273 H            1 W8R900   0.0000
    52 HM13        36.0054     9.5991   128.3170 H            1 W8R900   0.0000
    53 H5A1        36.3928     9.2232   124.6252 H            1 W8R900   0.0000
    54 H5A2        35.0982     8.5389   125.3480 H            1 W8R900   0.0000
@<TRIPOS>BOND
     1    1    2       1
     2    1    6       1
     3    2    3       2
     4    3    4       1
     5    3    5       1
     6    5    6       2
     7    6    7       1
     8    7    8       1
     9    8    9       1
    10    9   10       1
    11   10   11       1
    12   11   12       1
    13   12   13       1
    14   13   14       1
    15   14   15       1
    16   15   16      ar
    17   15   20      ar
    18   16   17      ar
    19   17   18      ar
    20   18   19      ar
    21   18   21       1
    22   19   20      ar
    23   21   22       2
    24   21   26       1
    25   22   23       1
    26   23   24       1
    27   23   25       1
    28   25   26       1
    29    4   27       1
    30    4   28       1
    31    4   29       1
    32    5   30       1
    33    7   31       1
    34    7   32       1
    35    8   33       1
    36    8   34       1
    37    9   35       1
    38    9   36       1
    39   10   37       1
    40   10   38       1
    41   11   39       1
    42   11   40       1
    43   12   41       1
    44   12   42       1
    45   13   43       1
    46   13   44       1
    47   16   45       1
    48   17   46       1
    49   19   47       1
    50   20   48       1
    51   23   49       1
    52   24   50       1
    53   24   51       1
    54   24   52       1
    55   25   53       1
    56   25   54       1
@<TRIPOS>SUBSTRUCTURE
     1 W8R900      1 GROUP             4 1     W8R     0 **** W8R 1 900
