@<TRIPOS>MOLECULE
./coach420/2ahw/ligand.pdb
 48 50 0 0 0
SMALL
GASTEIGER

@<TRIPOS>ATOM
      1  N1A        9.6540   13.8440   21.3150 N.ar  2600  COA2600    -0.2040
      2  C2A       10.1660   14.0100   22.5520 C.ar  2600  COA2600     0.2016
      3  N3A       10.5630   12.9880   23.3370 N.ar  2600  COA2600    -0.2048
      4  C4A       10.4620   11.6990   22.9050 C.ar  2600  COA2600     0.1692
      5  C5A        9.9140   11.4370   21.5610 C.ar  2600  COA2600     0.1518
      6  C6A        9.4990   12.6170   20.7600 C.ar  2600  COA2600     0.1919
      7  N6A        8.9840   12.4750   19.5160 N.pl3 2600  COA2600    -0.1054
      8  N7A        9.9320   10.1030   21.3950 N.ar  2600  COA2600    -0.2193
      9  C8A       10.4460    9.5500   22.5230 C.ar  2600  COA2600     0.1816
     10  N9A       10.7620   10.5020   23.4240 N.ar  2600  COA2600    -0.2693
     11  C1B       11.3420   10.2880   24.7740 C.3   2600  COA2600     0.2408
     12  C2B       10.2820    9.7810   25.7420 C.3   2600  COA2600     0.2310
     13  O2B        9.5290   10.8430   26.3280 O.3   2600  COA2600    -0.2156
     14  C3B       11.1130    9.0250   26.7570 C.3   2600  COA2600     0.1904
     15  O3B       11.5990    9.9370   27.7360 O.3   2600  COA2600    -0.2674
     16  P3B       11.3680    9.7250   29.3180 P.3   2600  COA2600     0.5327
     17  O7A       11.2080    8.2280   29.5050 O.2   2600  COA2600    -0.2224
     18  O8A       12.6380   10.2880   29.9220 O.3   2600  COA2600    -0.1145
     19  O9A       10.1130   10.5290   29.6020 O.3   2600  COA2600    -0.1145
     20  C4B       12.3090    8.5100   25.9650 C.3   2600  COA2600     0.1775
     21  O4B       12.3850    9.2990   24.7700 O.3   2600  COA2600    -0.3307
     22  C5B       12.1800    7.0170   25.6440 C.3   2600  COA2600     0.1812
     23  O5B       11.0780    6.7720   24.7610 O.3   2600  COA2600    -0.3112
     24  P1A        9.9030    5.6970   25.0680 P.3   2600  COA2600     0.2189
     25  O1A       10.1260    5.0120   26.3950 O.3   2600  COA2600    -0.4371
     26  O2A        8.5750    6.3640   24.8220 O.2   2600  COA2600    -0.5170
     27  O3A       10.1870    4.6180   23.9080 O.3   2600  COA2600    -0.2703
     28  P2A       11.5090    3.6880   23.9080 P.3   2600  COA2600     0.2188
     29  O4A       11.8460    3.2760   25.3210 O.3   2600  COA2600    -0.4371
     30  O5A       11.2560    2.6160   22.8760 O.2   2600  COA2600    -0.5170
     31  O6A       12.7140    4.6370   23.3770 O.3   2600  COA2600    -0.3138
     32  CBP       14.1570    5.5810   21.5520 C.3   2600  COA2600     0.0645
     33  CCP       12.7880    5.0730   22.0160 C.3   2600  COA2600     0.1519
     34  CDP       13.9590    6.1370   20.1470 C.3   2600  COA2600     0.0056
     35  CEP       14.6140    6.7010   22.4800 C.3   2600  COA2600     0.0056
     36  CAP       15.2520    4.4790   21.5350 C.3   2600  COA2600     0.2312
     37  OAP       14.7420    3.2140   21.0880 O.3   2600  COA2600    -0.2131
     38  C9P       16.4830    4.8360   20.7050 C.2   2600  COA2600     0.2719
     39  O9P       17.2010    5.7790   21.0300 O.2   2600  COA2600    -0.2706
     40  N8P       16.7470    4.0790   19.6270 N.am  2600  COA2600    -0.2028
     41  C7P       17.8880    4.3060   18.7410 C.3   2600  COA2600     0.1248
     42  C6P       18.8390    3.1110   18.6690 C.3   2600  COA2600     0.1102
     43  C5P       18.2110    1.9420   17.9380 C.2   2600  COA2600     0.2432
     44  O5P       17.0630    1.9960   17.5330 O.2   2600  COA2600    -0.2733
     45  N4P       18.9970    0.8760   17.7670 N.am  2600  COA2600    -0.2044
     46  C3P       18.6130   -0.3600   17.1030 C.3   2600  COA2600     0.1276
     47  C2P       18.7870   -1.5150   18.0840 C.3   2600  COA2600     0.0920
     48  S1P       19.1660   -3.0290   17.2560 S.3   2600  COA2600    -0.0802
@<TRIPOS>BOND
     1     1     6   ar
     2     1     2   ar
     3     2     3   ar
     4     3     4   ar
     5     4     5   ar
     6     4    10   ar
     7     5     6   ar
     8     5     8   ar
     9     6     7    1
    10     8     9   ar
    11     9    10   ar
    12    10    11    1
    13    11    21    1
    14    11    12    1
    15    12    13    1
    16    12    14    1
    17    14    20    1
    18    14    15    1
    19    15    16    1
    20    16    17    2
    21    16    19    1
    22    16    18    1
    23    20    21    1
    24    20    22    1
    25    22    23    1
    26    23    24    1
    27    24    27    1
    28    24    26    2
    29    24    25    1
    30    27    28    1
    31    28    30    2
    32    28    31    1
    33    28    29    1
    34    31    33    1
    35    32    34    1
    36    32    36    1
    37    32    33    1
    38    32    35    1
    39    36    38    1
    40    36    37    1
    41    38    40   am
    42    38    39    2
    43    40    41    1
    44    41    42    1
    45    42    43    1
    46    43    44    2
    47    43    45   am
    48    45    46    1
    49    46    47    1
    50    47    48    1
