@<TRIPOS>MOLECULE
2r86_ATP_1_ligand
   43    45     1     0     0
SMALL
NO_CHARGES


@<TRIPOS>ATOM
     1 PG          38.8160    34.8670     6.7380 P.3          1 ATP400   0.0000
     2 O1G         38.7150    36.2700     6.1710 O.co2        1 ATP400   0.0000
     3 O2G         38.0890    33.8200     5.9190 O.co2        1 ATP400  -1.0000
     4 O3G         38.5700    34.7740     8.2300 O.co2        1 ATP400  -1.0000
     5 PB          41.5800    35.4750     6.8380 P.3          1 ATP400   0.0000
     6 O1B         42.8740    34.6940     6.7150 O.co2        1 ATP400   0.0000
     7 O2B         41.2740    36.2450     8.1090 O.co2        1 ATP400  -1.0000
     8 O3B         40.3650    34.4460     6.5680 O.3          1 ATP400   0.0000
     9 PA          42.1950    37.9010     5.5520 P.3          1 ATP400   0.0000
    10 O1A         41.7850    38.6960     6.7650 O.co2        1 ATP400   0.0000
    11 O2A         42.0230    38.4970     4.1780 O.co2        1 ATP400  -1.0000
    12 O3A         41.4580    36.4710     5.5690 O.3          1 ATP400   0.0000
    13 O5'         43.7140    37.4410     5.7830 O.3          1 ATP400   0.0000
    14 C5'         44.6080    37.1290     4.7230 C.3          1 ATP400   0.0000
    15 C4'         45.9830    37.6660     5.0900 C.3          1 ATP400   0.0000
    16 O4'         46.4300    38.5790     4.0860 O.3          1 ATP400   0.0000
    17 C3'         45.9930    38.4430     6.4010 C.3          1 ATP400   0.0000
    18 O3'         46.3630    37.6120     7.5020 O.3          1 ATP400   0.0000
    19 C2'         47.0070    39.5380     6.1830 C.3          1 ATP400   0.0000
    20 O2'         48.2910    39.0700     6.5910 O.3          1 ATP400   0.0000
    21 C1'         47.0120    39.7410     4.6770 C.3          1 ATP400   0.0000
    22 N9          46.2050    40.9380     4.3270 N.pl3        1 ATP400   0.0000
    23 C8          44.8710    41.0730     4.4880 C.2          1 ATP400   0.0000
    24 N7          44.4430    42.2890     4.0710 N.2          1 ATP400   0.0000
    25 C5          45.5190    42.9600     3.6270 C.ar         1 ATP400   0.0000
    26 C6          45.7770    44.2980     3.0500 C.ar         1 ATP400   0.0000
    27 N6          44.7650    45.1690     2.8660 N.pl3        1 ATP400   0.0000
    28 N1          47.0500    44.6130     2.7180 N.ar         1 ATP400   0.0000
    29 C2          48.0630    43.7470     2.9000 C.ar         1 ATP400   0.0000
    30 N3          47.9030    42.5170     3.4190 N.ar         1 ATP400   0.0000
    31 C4          46.6800    42.0700     3.7980 C.ar         1 ATP400   0.0000
    32 H5'1        44.2920    37.5570     3.8762 H            1 ATP400   0.0000
    33 H5'2        44.6534    36.1378     4.5987 H            1 ATP400   0.0000
    34 H4'         46.6280    36.9044     5.1535 H            1 ATP400   0.0000
    35 H3'         45.0914    38.8430     6.5655 H            1 ATP400   0.0000
    36 H5          45.7096    36.8596     7.5861 H            1 ATP400   0.0000
    37 H2'         46.7516    40.3759     6.6653 H            1 ATP400   0.0000
    38 H7          48.2637    38.8238     7.5598 H            1 ATP400   0.0000
    39 H1'         47.9506    39.8554     4.3515 H            1 ATP400   0.0000
    40 H9          44.2747    40.3653     4.8669 H            1 ATP400   0.0000
    41 H10         44.9468    46.0715     2.4755 H            1 ATP400   0.0000
    42 H11         43.8323    44.9127     3.1199 H            1 ATP400   0.0000
    43 H12         48.9839    44.0331     2.6353 H            1 ATP400   0.0000
@<TRIPOS>BOND
     1    1    2      ar
     2    1    3      ar
     3    1    4      ar
     4    1    8       1
     5    5    6      ar
     6    5    7      ar
     7    5    8       1
     8    5   12       1
     9    9   10      ar
    10    9   11      ar
    11    9   12       1
    12    9   13       1
    13   13   14       1
    14   14   15       1
    15   15   16       1
    16   15   17       1
    17   16   21       1
    18   17   18       1
    19   17   19       1
    20   19   20       1
    21   19   21       1
    22   21   22       1
    23   22   23       1
    24   22   31       1
    25   23   24       2
    26   24   25       1
    27   25   26      ar
    28   25   31      ar
    29   26   27       1
    30   26   28      ar
    31   28   29      ar
    32   29   30      ar
    33   30   31      ar
    34   29   43       1
    35   27   42       1
    36   27   41       1
    37   23   40       1
    38   14   32       1
    39   14   33       1
    40   15   34       1
    41   17   35       1
    42   18   36       1
    43   19   37       1
    44   20   38       1
    45   21   39       1
@<TRIPOS>SUBSTRUCTURE
     1 ATP400      1 GROUP             4 A     ATP     0 **** ATP A 400
