@<TRIPOS>MOLECULE
1osv_CHC_1_ligand
   73    76     1     0     0
SMALL
NO_CHARGES


@<TRIPOS>ATOM
     1 C1           8.1840    35.1620    16.2230 C.3          1 CHC202   0.0000
     2 C2           8.4170    34.1640    17.4020 C.3          1 CHC202   0.0000
     3 C3           7.6930    34.7220    18.7130 C.3          1 CHC202   0.0000
     4 O3           7.8730    33.8450    19.7620 O.3          1 CHC202   0.0000
     5 C4           8.2630    36.1690    19.1190 C.3          1 CHC202   0.0000
     6 C5           8.0750    37.2330    17.8970 C.3          1 CHC202   0.0000
     7 C6           8.6470    38.6960    18.1960 C.3          1 CHC202   0.0000
     8 C7          10.2460    38.7190    18.2750 C.3          1 CHC202   0.0000
     9 O7          10.7480    37.9790    19.4540 O.3          1 CHC202   0.0000
    10 C8          10.9310    38.1380    16.9810 C.3          1 CHC202   0.0000
    11 C9          10.4430    36.6090    16.7030 C.3          1 CHC202   0.0000
    12 C10          8.7680    36.6150    16.5080 C.3          1 CHC202   0.0000
    13 C11         11.1790    36.0700    15.4650 C.3          1 CHC202   0.0000
    14 C12         12.7550    36.0600    15.5890 C.3          1 CHC202   0.0000
    15 C13         13.2940    37.5270    15.8220 C.3          1 CHC202   0.0000
    16 C14         12.5310    38.1110    17.0740 C.3          1 CHC202   0.0000
    17 C15         13.2940    39.4950    17.3090 C.3          1 CHC202   0.0000
    18 C16         14.7170    38.9970    17.2980 C.3          1 CHC202   0.0000
    19 C17         14.8150    37.6990    16.3720 C.3          1 CHC202   0.0000
    20 C18         12.9790    38.3930    14.4630 C.3          1 CHC202   0.0000
    21 C19          8.3320    37.3690    15.2560 C.3          1 CHC202   0.0000
    22 C20         15.9590    37.8080    15.2380 C.3          1 CHC202   0.0000
    23 C21         15.9720    36.4330    14.3830 C.3          1 CHC202   0.0000
    24 C22         17.3610    38.0110    15.8150 C.3          1 CHC202   0.0000
    25 C23         18.4670    38.1220    14.6950 C.3          1 CHC202   0.0000
    26 C24         19.8820    38.3250    15.1140 C.2          1 CHC202   0.0000
    27 C25          6.7350    39.2900    19.9220 C.3          1 CHC202   0.0000
    28 C26          8.2140    39.1380    19.5640 C.3          1 CHC202   0.0000
    29 OT1         20.3510    39.4660    15.0030 O.co2        1 CHC202   0.0000
    30 OT2         20.5410    37.3480    15.5400 O.co2        1 CHC202  -1.0000
    31 H1           7.2001    35.2406    16.0627 H            1 CHC202   0.0000
    32 H2           8.6270    34.7962    15.4045 H            1 CHC202   0.0000
    33 H3           9.3978    34.0731    17.5745 H            1 CHC202   0.0000
    34 H4           8.0362    33.2705    17.1642 H            1 CHC202   0.0000
    35 H5           6.7137    34.8037    18.5280 H            1 CHC202   0.0000
    36 H6           7.0889    33.8993    20.3802 H            1 CHC202   0.0000
    37 H7           9.2358    36.0885    19.3362 H            1 CHC202   0.0000
    38 H8           7.7687    36.5020    19.9220 H            1 CHC202   0.0000
    39 H9           7.0937    37.3239    17.7273 H            1 CHC202   0.0000
    40 H10          8.3246    39.3424    17.5045 H            1 CHC202   0.0000
    41 H11         10.5325    39.6724    18.3693 H            1 CHC202   0.0000
    42 H12         11.7472    38.0152    19.4696 H            1 CHC202   0.0000
    43 H13         10.6670    38.7035    16.1997 H            1 CHC202   0.0000
    44 H14         10.6772    36.0432    17.4936 H            1 CHC202   0.0000
    45 H15         10.9313    36.6405    14.6819 H            1 CHC202   0.0000
    46 H16         10.8728    35.1317    15.3040 H            1 CHC202   0.0000
    47 H17         13.1502    35.6929    14.7469 H            1 CHC202   0.0000
    48 H18         13.0218    35.4836    16.3614 H            1 CHC202   0.0000
    49 H19         12.7619    37.5226    17.8489 H            1 CHC202   0.0000
    50 H20         13.0509    39.9113    18.1851 H            1 CHC202   0.0000
    51 H21         13.1208    40.1469    16.5707 H            1 CHC202   0.0000
    52 H22         14.9968    38.7647    18.2295 H            1 CHC202   0.0000
    53 H23         15.3178    39.7105    16.9376 H            1 CHC202   0.0000
    54 H24         15.0269    36.9147    16.9550 H            1 CHC202   0.0000
    55 H25         13.3098    39.3294    14.5803 H            1 CHC202   0.0000
    56 H26         13.4425    37.9709    13.6839 H            1 CHC202   0.0000
    57 H27         11.9929    38.4061    14.2972 H            1 CHC202   0.0000
    58 H28          8.6446    38.3172    15.3121 H            1 CHC202   0.0000
    59 H29          8.7309    36.9338    14.4489 H            1 CHC202   0.0000
    60 H30          7.3346    37.3504    15.1861 H            1 CHC202   0.0000
    61 H31         15.7430    38.5703    14.6279 H            1 CHC202   0.0000
    62 H32         16.6771    36.4868    13.6759 H            1 CHC202   0.0000
    63 H33         16.1681    35.6640    14.9914 H            1 CHC202   0.0000
    64 H34         15.0789    36.2990    13.9536 H            1 CHC202   0.0000
    65 H35         17.5799    37.2343    16.4057 H            1 CHC202   0.0000
    66 H36         17.3664    38.8525    16.3552 H            1 CHC202   0.0000
    67 H37         18.2185    38.8937    14.1096 H            1 CHC202   0.0000
    68 H38         18.4348    37.2760    14.1629 H            1 CHC202   0.0000
    69 H39          6.6512    39.5911    20.8719 H            1 CHC202   0.0000
    70 H40          6.3140    39.9677    19.3191 H            1 CHC202   0.0000
    71 H41          6.2726    38.4105    19.8091 H            1 CHC202   0.0000
    72 H42          8.6353    40.0317    19.7186 H            1 CHC202   0.0000
    73 H43          8.5938    38.4745    20.2086 H            1 CHC202   0.0000
@<TRIPOS>BOND
     1    1    2       1
     2    1   12       1
     3    2    3       1
     4    3    4       1
     5    3    5       1
     6    5    6       1
     7    6    7       1
     8    6   12       1
     9    7    8       1
    10    7   28       1
    11    8    9       1
    12    8   10       1
    13   10   11       1
    14   10   16       1
    15   11   12       1
    16   11   13       1
    17   12   21       1
    18   13   14       1
    19   14   15       1
    20   15   16       1
    21   15   19       1
    22   15   20       1
    23   16   17       1
    24   17   18       1
    25   18   19       1
    26   19   22       1
    27   22   23       1
    28   22   24       1
    29   24   25       1
    30   25   26       1
    31   26   29      ar
    32   26   30      ar
    33   27   28       1
    34    1   31       1
    35    1   32       1
    36    2   33       1
    37    2   34       1
    38    3   35       1
    39    4   36       1
    40    5   37       1
    41    5   38       1
    42    6   39       1
    43    7   40       1
    44    8   41       1
    45    9   42       1
    46   10   43       1
    47   11   44       1
    48   13   45       1
    49   13   46       1
    50   14   47       1
    51   14   48       1
    52   16   49       1
    53   17   50       1
    54   17   51       1
    55   18   52       1
    56   18   53       1
    57   19   54       1
    58   20   55       1
    59   20   56       1
    60   20   57       1
    61   21   58       1
    62   21   59       1
    63   21   60       1
    64   22   61       1
    65   23   62       1
    66   23   63       1
    67   23   64       1
    68   24   65       1
    69   24   66       1
    70   25   67       1
    71   25   68       1
    72   27   69       1
    73   27   70       1
    74   27   71       1
    75   28   72       1
    76   28   73       1
@<TRIPOS>SUBSTRUCTURE
     1 CHC202      1 GROUP             4 A     CHC     0 **** CHC A 202
