@<TRIPOS>MOLECULE
4eet_FMN_2_ligand
   50    52     1     0     0
SMALL
NO_CHARGES


@<TRIPOS>ATOM
     1 N1          29.5850    34.5400   -17.3680 N.2          1 FMN501   0.0000
     2 C2          30.4200    33.6470   -17.9940 C.2          1 FMN501   0.0000
     3 O2          30.7710    33.8320   -19.1650 O.2          1 FMN501   0.0000
     4 N3          30.8640    32.5240   -17.3270 N.pl3        1 FMN501   0.0000
     5 C4          30.5220    32.2640   -16.0210 C.2          1 FMN501   0.0000
     6 O4          30.9370    31.2310   -15.4780 O.2          1 FMN501   0.0000
     7 C4A         29.6810    33.1670   -15.3690 C.2          1 FMN501   0.0000
     8 N5          29.3180    32.9510   -14.0580 N.2          1 FMN501   0.0000
     9 C5A         28.4610    33.8440   -13.4450 C.ar         1 FMN501   0.0000
    10 C6          28.0890    33.6110   -12.1270 C.ar         1 FMN501   0.0000
    11 C7          27.2210    34.4860   -11.4770 C.ar         1 FMN501   0.0000
    12 C7M         26.8350    34.1780   -10.0610 C.3          1 FMN501   0.0000
    13 C8          26.7410    35.6110   -12.1550 C.ar         1 FMN501   0.0000
    14 C8M         25.8160    36.5770   -11.4800 C.3          1 FMN501   0.0000
    15 C9          27.1250    35.8510   -13.4690 C.ar         1 FMN501   0.0000
    16 C9A         27.9890    34.9750   -14.1270 C.ar         1 FMN501   0.0000
    17 N10         28.4040    35.1970   -15.4420 N.pl3        1 FMN501   0.0000
    18 C10         29.2230    34.2900   -16.0660 C.2          1 FMN501   0.0000
    19 C1'         27.8700    36.3410   -16.2420 C.3          1 FMN501   0.0000
    20 C2'         28.6270    37.6450   -16.2340 C.3          1 FMN501   0.0000
    21 O2'         29.0300    37.9480   -14.9120 O.3          1 FMN501   0.0000
    22 C3'         27.7100    38.7560   -16.7690 C.3          1 FMN501   0.0000
    23 O3'         26.5050    38.7710   -16.0340 O.3          1 FMN501   0.0000
    24 C4'         27.3870    38.6180   -18.2630 C.3          1 FMN501   0.0000
    25 O4'         28.5940    38.7560   -18.9890 O.3          1 FMN501   0.0000
    26 C5'         26.3460    39.6300   -18.7520 C.3          1 FMN501   0.0000
    27 O5'         26.6450    40.9260   -18.2780 O.3          1 FMN501   0.0000
    28 P           27.4800    41.9370   -19.1890 P.3          1 FMN501   0.0000
    29 O1P         27.6310    43.1910   -18.3640 O.co2        1 FMN501   0.0000
    30 O2P         28.8100    41.2760   -19.4800 O.co2        1 FMN501  -1.0000
    31 O3P         26.7330    42.2080   -20.4820 O.co2        1 FMN501  -1.0000
    32 H1          31.4545    31.8773   -17.8097 H            1 FMN501   0.0000
    33 H2          28.4456    32.8120   -11.6427 H            1 FMN501   0.0000
    34 H7M1        26.2129    34.8847    -9.7238 H            1 FMN501   0.0000
    35 H7M2        26.3795    33.2885   -10.0256 H            1 FMN501   0.0000
    36 H7M3        27.6552    34.1555    -9.4893 H            1 FMN501   0.0000
    37 H8M1        25.5806    37.3125   -12.1153 H            1 FMN501   0.0000
    38 H8M2        24.9832    36.1001   -11.1988 H            1 FMN501   0.0000
    39 H8M3        26.2668    36.9633   -10.6753 H            1 FMN501   0.0000
    40 H9          26.7791    36.6584   -13.9469 H            1 FMN501   0.0000
    41 H1'1        26.9491    36.5330   -15.9028 H            1 FMN501   0.0000
    42 H1'2        27.8182    36.0364   -17.1931 H            1 FMN501   0.0000
    43 H2'         29.4338    37.5667   -16.8196 H            1 FMN501   0.0000
    44 H13         29.5321    38.8128   -14.9065 H            1 FMN501   0.0000
    45 H3'         28.1701    39.6329   -16.6300 H            1 FMN501   0.0000
    46 H15         25.8399    38.1660   -16.4718 H            1 FMN501   0.0000
    47 H4'         27.0288    37.6981   -18.4225 H            1 FMN501   0.0000
    48 H17         28.7384    39.7192   -19.2157 H            1 FMN501   0.0000
    49 H5'1        25.4432    39.3590   -18.4180 H            1 FMN501   0.0000
    50 H5'2        26.3425    39.6394   -19.7519 H            1 FMN501   0.0000
@<TRIPOS>BOND
     1    1    2       1
     2    1   18       2
     3    2    3       2
     4    2    4       1
     5    4    5       1
     6    5    6       2
     7    5    7       1
     8    7    8       2
     9    7   18       1
    10    8    9       1
    11    9   10      ar
    12    9   16      ar
    13   10   11      ar
    14   11   12       1
    15   11   13      ar
    16   13   14       1
    17   13   15      ar
    18   15   16      ar
    19   16   17       1
    20   17   18       1
    21   17   19       1
    22   19   20       1
    23   20   21       1
    24   20   22       1
    25   22   23       1
    26   22   24       1
    27   24   25       1
    28   24   26       1
    29   26   27       1
    30   27   28       1
    31   28   29      ar
    32   28   30      ar
    33   28   31      ar
    34    4   32       1
    35   10   33       1
    36   12   34       1
    37   12   35       1
    38   12   36       1
    39   14   37       1
    40   14   38       1
    41   14   39       1
    42   15   40       1
    43   19   41       1
    44   19   42       1
    45   20   43       1
    46   21   44       1
    47   22   45       1
    48   23   46       1
    49   24   47       1
    50   25   48       1
    51   26   49       1
    52   26   50       1
@<TRIPOS>SUBSTRUCTURE
     1 FMN501      1 GROUP             4 D     FMN     0 **** FMN D 501
