@<TRIPOS>MOLECULE
2xvm_SAH_2_ligand
   46    48     1     0     0
SMALL
NO_CHARGES


@<TRIPOS>ATOM
     1 N          -37.3040   -17.8310   -11.3230 N.4          1 SAH1198   1.0000
     2 CA         -35.8910   -17.3170   -11.2130 C.3          1 SAH1198   0.0000
     3 CB         -34.8680   -18.1850   -10.4430 C.3          1 SAH1198   0.0000
     4 CG         -34.6610   -19.5910   -10.9420 C.3          1 SAH1198   0.0000
     5 SD         -33.3380   -20.3540   -10.0140 S.3          1 SAH1198   0.0000
     6 C          -35.3120   -17.0330   -12.5440 C.2          1 SAH1198   0.0000
     7 O          -35.9790   -17.3740   -13.5570 O.co2        1 SAH1198   0.0000
     8 OXT        -34.1520   -16.5170   -12.6040 O.co2        1 SAH1198  -1.0000
     9 C5'        -34.2920   -21.5150    -8.9820 C.3          1 SAH1198   0.0000
    10 C4'        -34.7680   -20.7500    -7.7390 C.3          1 SAH1198   0.0000
    11 O4'        -35.8610   -21.4430    -7.1120 O.3          1 SAH1198   0.0000
    12 C3'        -33.6920   -20.3540    -6.6920 C.3          1 SAH1198   0.0000
    13 O3'        -33.7870   -18.9010    -6.4700 O.3          1 SAH1198   0.0000
    14 C2'        -34.1560   -21.1530    -5.5210 C.3          1 SAH1198   0.0000
    15 O2'        -33.7400   -20.5550    -4.2830 O.3          1 SAH1198   0.0000
    16 C1'        -35.6850   -21.2780    -5.7220 C.3          1 SAH1198   0.0000
    17 N9         -36.2220   -22.4240    -4.9940 N.pl3        1 SAH1198   0.0000
    18 C8         -35.8860   -23.7160    -5.1340 C.2          1 SAH1198   0.0000
    19 N7         -36.5800   -24.5090    -4.2450 N.2          1 SAH1198   0.0000
    20 C5         -37.4160   -23.6690    -3.6040 C.ar         1 SAH1198   0.0000
    21 C6         -38.3870   -23.7980    -2.5530 C.ar         1 SAH1198   0.0000
    22 N6         -38.6410   -25.0070    -2.0400 N.pl3        1 SAH1198   0.0000
    23 N1         -39.0250   -22.6750    -2.1480 N.ar         1 SAH1198   0.0000
    24 C2         -38.7840   -21.4250    -2.6130 C.ar         1 SAH1198   0.0000
    25 N3         -37.8450   -21.2300    -3.5760 N.ar         1 SAH1198   0.0000
    26 C4         -37.1790   -22.3120    -4.0660 C.ar         1 SAH1198   0.0000
    27 H1         -37.8567   -17.1784   -11.8413 H            1 SAH1198   0.0000
    28 H2         -37.3020   -18.7135   -11.7933 H            1 SAH1198   0.0000
    29 HA         -35.9424   -16.4420   -10.7316 H            1 SAH1198   0.0000
    30 HB1        -35.1744   -18.2429    -9.4929 H            1 SAH1198   0.0000
    31 HB2        -33.9849   -17.7172   -10.4806 H            1 SAH1198   0.0000
    32 HG1        -34.4200   -19.5696   -11.9123 H            1 SAH1198   0.0000
    33 HG2        -35.5026   -20.1170   -10.8191 H            1 SAH1198   0.0000
    34 H5'1       -33.7127   -22.2829    -8.7085 H            1 SAH1198   0.0000
    35 H5'2       -35.0799   -21.8575    -9.4938 H            1 SAH1198   0.0000
    36 H4'        -35.1489   -19.8896    -8.0775 H            1 SAH1198   0.0000
    37 H3'        -32.7746   -20.6243    -6.9841 H            1 SAH1198   0.0000
    38 H12        -34.6998   -18.6747    -6.1300 H            1 SAH1198   0.0000
    39 H2'        -33.7534   -22.0663    -5.5819 H            1 SAH1198   0.0000
    40 H14        -34.4415   -19.9148    -3.9698 H            1 SAH1198   0.0000
    41 H1'        -36.1378   -20.4396    -5.4187 H            1 SAH1198   0.0000
    42 H16        -35.2196   -24.0585    -5.7963 H            1 SAH1198   0.0000
    43 H17        -39.3150   -25.1081    -1.3082 H            1 SAH1198   0.0000
    44 H18        -38.1569   -25.8097    -2.3883 H            1 SAH1198   0.0000
    45 H19        -39.2962   -20.6475    -2.2482 H            1 SAH1198   0.0000
    46 H20        -37.6905   -17.9420   -10.4074 H            1 SAH1198   0.0000
@<TRIPOS>BOND
     1    1    2       1
     2    2    3       1
     3    2    6       1
     4    3    4       1
     5    4    5       1
     6    5    9       1
     7    6    7      ar
     8    6    8      ar
     9    9   10       1
    10   10   11       1
    11   10   12       1
    12   11   16       1
    13   12   13       1
    14   12   14       1
    15   14   15       1
    16   14   16       1
    17   16   17       1
    18   17   18       1
    19   17   26       1
    20   18   19       2
    21   19   20       1
    22   20   21      ar
    23   20   26      ar
    24   21   22       1
    25   21   23      ar
    26   23   24      ar
    27   24   25      ar
    28   25   26      ar
    29    1   27       1
    30    1   28       1
    31    2   29       1
    32    3   30       1
    33    3   31       1
    34    4   32       1
    35    4   33       1
    36    1   46       1
    37    9   34       1
    38    9   35       1
    39   10   36       1
    40   12   37       1
    41   13   38       1
    42   14   39       1
    43   15   40       1
    44   16   41       1
    45   18   42       1
    46   22   43       1
    47   22   44       1
    48   24   45       1
@<TRIPOS>SUBSTRUCTURE
     1 SAH1198     1 GROUP             4 B     SAH     0 **** SAH B1198
