@<TRIPOS>MOLECULE
3mzi_FMN_6_ligand
   50    52     1     0     0
SMALL
NO_CHARGES


@<TRIPOS>ATOM
     1 N1         -31.6310    37.0970   -35.9220 N.2          1 FMN154   0.0000
     2 C2         -32.3620    36.6730   -37.0100 C.2          1 FMN154   0.0000
     3 O2         -33.5670    36.4520   -36.9110 O.2          1 FMN154   0.0000
     4 N3         -31.7370    36.4950   -38.2210 N.pl3        1 FMN154   0.0000
     5 C4         -30.3900    36.7410   -38.3600 C.2          1 FMN154   0.0000
     6 O4         -29.8520    36.5800   -39.4530 O.2          1 FMN154   0.0000
     7 C4A        -29.6520    37.1670   -37.2680 C.2          1 FMN154   0.0000
     8 N5         -28.3040    37.4110   -37.4000 N.2          1 FMN154   0.0000
     9 C5A        -27.5710    37.8370   -36.3120 C.ar         1 FMN154   0.0000
    10 C6         -26.2060    38.0840   -36.4490 C.ar         1 FMN154   0.0000
    11 C7         -25.4610    38.5090   -35.3550 C.ar         1 FMN154   0.0000
    12 C7M        -23.9970    38.7690   -35.5230 C.3          1 FMN154   0.0000
    13 C8         -26.0800    38.6920   -34.1200 C.ar         1 FMN154   0.0000
    14 C8M        -25.2930    39.1510   -32.9300 C.3          1 FMN154   0.0000
    15 C9         -27.4440    38.4450   -33.9860 C.ar         1 FMN154   0.0000
    16 C9A        -28.1950    38.0160   -35.0780 C.ar         1 FMN154   0.0000
    17 N10        -29.5540    37.7720   -34.9450 N.pl3        1 FMN154   0.0000
    18 C10        -30.2780    37.3450   -36.0420 C.2          1 FMN154   0.0000
    19 C1'        -30.2530    37.9530   -33.6210 C.3          1 FMN154   0.0000
    20 C2'        -31.2000    39.1510   -33.6450 C.3          1 FMN154   0.0000
    21 O2'        -30.4490    40.3430   -33.5170 O.3          1 FMN154   0.0000
    22 C3'        -32.2310    39.0600   -32.5160 C.3          1 FMN154   0.0000
    23 O3'        -31.6040    38.4530   -31.4130 O.3          1 FMN154   0.0000
    24 C4'        -33.4760    38.2390   -32.8760 C.3          1 FMN154   0.0000
    25 O4'        -33.8340    38.4540   -34.2240 O.3          1 FMN154   0.0000
    26 C5'        -34.6570    38.5540   -31.9490 C.3          1 FMN154   0.0000
    27 O5'        -35.8340    37.9490   -32.4350 O.3          1 FMN154   0.0000
    28 P          -36.7860    37.1160   -31.4420 P.3          1 FMN154   0.0000
    29 O1P        -37.2120    38.0250   -30.3020 O.co2        1 FMN154   0.0000
    30 O2P        -35.9900    35.9730   -30.8780 O.co2        1 FMN154  -1.0000
    31 O3P        -37.9420    36.5120   -32.2190 O.co2        1 FMN154  -1.0000
    32 H1         -32.2668    36.1833   -39.0098 H            1 FMN154   0.0000
    33 H2         -25.7619    37.9553   -37.3357 H            1 FMN154   0.0000
    34 H7M1       -23.6088    39.0655   -34.6504 H            1 FMN154   0.0000
    35 H7M2       -23.5418    37.9305   -35.8226 H            1 FMN154   0.0000
    36 H7M3       -23.8620    39.4847   -36.2083 H            1 FMN154   0.0000
    37 H8M1       -25.8991    39.2256   -32.1381 H            1 FMN154   0.0000
    38 H8M2       -24.5687    38.4899   -32.7343 H            1 FMN154   0.0000
    39 H8M3       -24.8861    40.0437   -33.1236 H            1 FMN154   0.0000
    40 H9         -27.8875    38.5766   -33.0994 H            1 FMN154   0.0000
    41 H1'1       -29.5663    38.0963   -32.9083 H            1 FMN154   0.0000
    42 H1'2       -30.7789    37.1275   -33.4161 H            1 FMN154   0.0000
    43 H2'        -31.6812    39.1649   -34.5215 H            1 FMN154   0.0000
    44 H13        -29.9476    40.3298   -32.6519 H            1 FMN154   0.0000
    45 H3'        -32.5145    39.9842   -32.2601 H            1 FMN154   0.0000
    46 H15        -32.2554    38.3800   -30.6578 H            1 FMN154   0.0000
    47 H4'        -33.2489    37.2711   -32.7679 H            1 FMN154   0.0000
    48 H17        -33.3684    37.7849   -34.8033 H            1 FMN154   0.0000
    49 H5'1       -34.7883    39.5444   -31.9066 H            1 FMN154   0.0000
    50 H5'2       -34.4601    38.2043   -31.0331 H            1 FMN154   0.0000
@<TRIPOS>BOND
     1    1    2       1
     2    1   18       2
     3    2    3       2
     4    2    4       1
     5    4    5       1
     6    5    6       2
     7    5    7       1
     8    7    8       2
     9    7   18       1
    10    8    9       1
    11    9   10      ar
    12    9   16      ar
    13   10   11      ar
    14   11   12       1
    15   11   13      ar
    16   13   14       1
    17   13   15      ar
    18   15   16      ar
    19   16   17       1
    20   17   18       1
    21   17   19       1
    22   19   20       1
    23   20   21       1
    24   20   22       1
    25   22   23       1
    26   22   24       1
    27   24   25       1
    28   24   26       1
    29   26   27       1
    30   27   28       1
    31   28   29      ar
    32   28   30      ar
    33   28   31      ar
    34    4   32       1
    35   10   33       1
    36   12   34       1
    37   12   35       1
    38   12   36       1
    39   14   37       1
    40   14   38       1
    41   14   39       1
    42   15   40       1
    43   19   41       1
    44   19   42       1
    45   20   43       1
    46   21   44       1
    47   22   45       1
    48   23   46       1
    49   24   47       1
    50   25   48       1
    51   26   49       1
    52   26   50       1
@<TRIPOS>SUBSTRUCTURE
     1 FMN154      1 GROUP             4 F     FMN     0 **** FMN F 154
