@<TRIPOS>MOLECULE
4njv_RIT_1_ligand
   98   101     1     0     0
SMALL
NO_CHARGES


@<TRIPOS>ATOM
     1 C1          20.5420    -1.0340    -3.1950 C.2          1 RIT500   0.0000
     2 C2          19.2680    -0.4860    -3.1560 C.2          1 RIT500   0.0000
     3 S3          18.1820    -1.5540    -4.0150 S.3          1 RIT500   0.0000
     4 C4          19.4990    -2.6240    -4.3840 C.2          1 RIT500   0.0000
     5 N5          20.6120    -2.1570    -3.8590 N.2          1 RIT500   0.0000
     6 C6          18.8590     0.7770    -2.4520 C.3          1 RIT500   0.0000
     7 O7          18.2850     0.3310    -1.2530 O.3          1 RIT500   0.0000
     8 C10         17.7530     1.2130    -0.3170 C.2          1 RIT500   0.0000
     9 O24         17.3700     2.3210    -0.6710 O.2          1 RIT500   0.0000
    10 N11         17.9520     0.9060     1.0910 N.am         1 RIT500   0.0000
    11 C12         17.2480     1.8210     1.9680 C.3          1 RIT500   0.0000
    12 C13         18.1900     2.2840     3.0930 C.3          1 RIT500   0.0000
    13 C14         19.4030     3.0140     2.5530 C.3          1 RIT500   0.0000
    14 C15         19.2960     4.6310     2.6860 C.3          1 RIT500   0.0000
    15 C26         16.0390     1.1280     2.5570 C.3          1 RIT500   0.0000
    16 C28         14.9890     0.8910     1.4590 C.ar         1 RIT500   0.0000
    17 C31         14.9150    -0.3660     0.8570 C.ar         1 RIT500   0.0000
    18 C32         13.9660    -0.5980    -0.1370 C.ar         1 RIT500   0.0000
    19 C33         13.0950     0.4180    -0.5280 C.ar         1 RIT500   0.0000
    20 C34         13.1650     1.6700     0.0740 C.ar         1 RIT500   0.0000
    21 C35         14.1200     1.9030     1.0690 C.ar         1 RIT500   0.0000
    22 O41         18.5940     1.1530     3.7580 O.3          1 RIT500   0.0000
    23 C44         20.7470     5.3170     2.6200 C.3          1 RIT500   0.0000
    24 C45         20.5070     6.7500     2.1980 C.ar         1 RIT500   0.0000
    25 C48         20.4470     7.7570     3.1650 C.ar         1 RIT500   0.0000
    26 C49         20.2200     9.0700     2.7760 C.ar         1 RIT500   0.0000
    27 C50         20.0440     9.3610     1.4220 C.ar         1 RIT500   0.0000
    28 C51         20.1010     8.3620     0.4570 C.ar         1 RIT500   0.0000
    29 C52         20.3330     7.0430     0.8470 C.ar         1 RIT500   0.0000
    30 N58         18.4310     5.2400     3.8340 N.am         1 RIT500   0.0000
    31 N20         16.8710     7.7280     5.0280 N.am         1 RIT500   0.0000
    32 C19         16.3440     6.3560     4.9260 C.3          1 RIT500   0.0000
    33 C18         17.0530     5.7590     3.6900 C.2          1 RIT500   0.0000
    34 O61         16.4800     5.7500     2.6050 O.2          1 RIT500   0.0000
    35 C62         14.8260     6.3900     4.8950 C.3          1 RIT500   0.0000
    36 C64         14.2670     7.0040     6.1400 C.3          1 RIT500   0.0000
    37 C68         14.2740     4.9880     4.7590 C.3          1 RIT500   0.0000
    38 C21         17.8950     8.0790     6.0400 C.2          1 RIT500   0.0000
    39 N74         18.4380     9.4690     6.1040 N.am         1 RIT500   0.0000
    40 C75         19.4550     9.7950     7.0930 C.3          1 RIT500   0.0000
    41 O76         18.3050     7.2260     6.8250 O.2          1 RIT500   0.0000
    42 C77         20.8380     9.8660     6.4400 C.2          1 RIT500   0.0000
    43 C80         21.7800     8.8480     6.4990 C.2          1 RIT500   0.0000
    44 S81         23.2250     9.3770     5.6170 S.3          1 RIT500   0.0000
    45 C82         22.4580    10.8900     5.2300 C.2          1 RIT500   0.0000
    46 N83         21.2440    10.9220     5.7560 N.2          1 RIT500   0.0000
    47 C85         23.0710    12.0190     4.4270 C.3          1 RIT500   0.0000
    48 C86         24.1800    11.4980     3.5670 C.3          1 RIT500   0.0000
    49 C90         22.0470    12.6840     3.5480 C.3          1 RIT500   0.0000
    50 C95         17.9800    10.4780     5.1890 C.3          1 RIT500   0.0000
    51 H1          21.3333    -0.6088    -2.7556 H            1 RIT500   0.0000
    52 H2          19.4232    -3.4678    -4.9153 H            1 RIT500   0.0000
    53 H3          18.1927     1.2867    -2.9963 H            1 RIT500   0.0000
    54 H4          19.6542     1.3557    -2.2710 H            1 RIT500   0.0000
    55 H5          18.5136     0.1461     1.4185 H            1 RIT500   0.0000
    56 H6          16.9478     2.6164     1.4416 H            1 RIT500   0.0000
    57 H7          17.6922     2.8817     3.7214 H            1 RIT500   0.0000
    58 H8          19.5082     2.7818     1.5860 H            1 RIT500   0.0000
    59 H9          20.2090     2.7070     3.0591 H            1 RIT500   0.0000
    60 H10         18.8406     4.9234     1.8451 H            1 RIT500   0.0000
    61 H11         15.6448     1.7013     3.2753 H            1 RIT500   0.0000
    62 H12         16.3165     0.2497     2.9462 H            1 RIT500   0.0000
    63 H13         15.5389    -1.0956     1.1371 H            1 RIT500   0.0000
    64 H14         13.9096    -1.4969    -0.5715 H            1 RIT500   0.0000
    65 H15         12.4178     0.2461    -1.2435 H            1 RIT500   0.0000
    66 H16         12.5374     2.3978    -0.2024 H            1 RIT500   0.0000
    67 H17         14.1778     2.8025     1.5020 H            1 RIT500   0.0000
    68 H18         17.9559     0.9585     4.5030 H            1 RIT500   0.0000
    69 H19         21.3234     4.8487     1.9503 H            1 RIT500   0.0000
    70 H20         21.1873     5.2874     3.5174 H            1 RIT500   0.0000
    71 H21         20.5670     7.5329     4.1322 H            1 RIT500   0.0000
    72 H22         20.1829     9.7999     3.4586 H            1 RIT500   0.0000
    73 H23         19.8738    10.3055     1.1411 H            1 RIT500   0.0000
    74 H24         19.9766     8.5872    -0.5093 H            1 RIT500   0.0000
    75 H25         20.3741     6.3144     0.1633 H            1 RIT500   0.0000
    76 H26         18.8433     5.2830     4.7440 H            1 RIT500   0.0000
    77 H27         16.5326     8.4331     4.4049 H            1 RIT500   0.0000
    78 H28         16.6331     5.8444     5.7351 H            1 RIT500   0.0000
    79 H29         14.5310     6.9311     4.1075 H            1 RIT500   0.0000
    80 H30         13.2684     7.0115     6.0886 H            1 RIT500   0.0000
    81 H31         14.5559     6.4692     6.9341 H            1 RIT500   0.0000
    82 H32         14.6032     7.9415     6.2293 H            1 RIT500   0.0000
    83 H33         13.2748     5.0236     4.7398 H            1 RIT500   0.0000
    84 H34         14.6094     4.5786     3.9105 H            1 RIT500   0.0000
    85 H35         14.5729     4.4352     5.5368 H            1 RIT500   0.0000
    86 H36         19.4621     9.0898     7.8020 H            1 RIT500   0.0000
    87 H37         19.2405    10.6803     7.5056 H            1 RIT500   0.0000
    88 H38         21.6639     7.9680     6.9595 H            1 RIT500   0.0000
    89 H39         23.4443    12.6985     5.0585 H            1 RIT500   0.0000
    90 H40         24.5767    12.2511     3.0421 H            1 RIT500   0.0000
    91 H41         24.8849    11.0868     4.1449 H            1 RIT500   0.0000
    92 H42         23.8192    10.8081     2.9395 H            1 RIT500   0.0000
    93 H43         22.4802    13.4229     3.0318 H            1 RIT500   0.0000
    94 H44         21.6664    12.0121     2.9126 H            1 RIT500   0.0000
    95 H45         21.3138    13.0590     4.1153 H            1 RIT500   0.0000
    96 H46         18.4506    11.3395     5.3799 H            1 RIT500   0.0000
    97 H47         18.1765    10.1915     4.2513 H            1 RIT500   0.0000
    98 H48         16.9942    10.6051     5.2991 H            1 RIT500   0.0000
@<TRIPOS>BOND
     1    1    2       2
     2    1    5       1
     3    2    3       1
     4    2    6       1
     5    3    4       1
     6    4    5       2
     7    6    7       1
     8    7    8       1
     9    8    9       2
    10    8   10      am
    11   10   11       1
    12   11   12       1
    13   11   15       1
    14   12   13       1
    15   12   22       1
    16   13   14       1
    17   14   23       1
    18   14   30       1
    19   15   16       1
    20   16   17      ar
    21   16   21      ar
    22   17   18      ar
    23   18   19      ar
    24   19   20      ar
    25   20   21      ar
    26   23   24       1
    27   24   25      ar
    28   24   29      ar
    29   25   26      ar
    30   26   27      ar
    31   27   28      ar
    32   28   29      ar
    33   30   33      am
    34   31   32       1
    35   31   38      am
    36   32   33       1
    37   32   35       1
    38   33   34       2
    39   35   36       1
    40   35   37       1
    41   38   39      am
    42   38   41       2
    43   39   40       1
    44   39   50       1
    45   40   42       1
    46   42   43       2
    47   42   46       1
    48   43   44       1
    49   44   45       1
    50   45   46       2
    51   45   47       1
    52   47   48       1
    53   47   49       1
    54    1   51       1
    55    4   52       1
    56    6   53       1
    57    6   54       1
    58   10   55       1
    59   11   56       1
    60   12   57       1
    61   13   58       1
    62   13   59       1
    63   14   60       1
    64   15   61       1
    65   15   62       1
    66   17   63       1
    67   18   64       1
    68   19   65       1
    69   20   66       1
    70   21   67       1
    71   22   68       1
    72   23   69       1
    73   23   70       1
    74   25   71       1
    75   26   72       1
    76   27   73       1
    77   28   74       1
    78   29   75       1
    79   30   76       1
    80   31   77       1
    81   32   78       1
    82   35   79       1
    83   36   80       1
    84   36   81       1
    85   36   82       1
    86   37   83       1
    87   37   84       1
    88   37   85       1
    89   40   86       1
    90   40   87       1
    91   43   88       1
    92   47   89       1
    93   48   90       1
    94   48   91       1
    95   48   92       1
    96   49   93       1
    97   49   94       1
    98   49   95       1
    99   50   96       1
   100   50   97       1
   101   50   98       1
@<TRIPOS>SUBSTRUCTURE
     1 RIT500      1 GROUP             4 A     RIT     0 **** RIT A 500
