@<TRIPOS>MOLECULE
3m42_HGF_1_ligand
   49    53     1     0     0
SMALL
NO_CHARGES


@<TRIPOS>ATOM
     1 N1          38.0530     5.8930    18.4500 N.pl3        1 HGF365   0.0000
     2 C3          38.8220     6.2430    17.3990 C.ar         1 HGF365   0.0000
     3 C4          38.6830     5.9030    16.0340 C.ar         1 HGF365   0.0000
     4 C5          39.6730     6.4080    15.1190 C.ar         1 HGF365   0.0000
     5 C6          39.5400     6.0650    13.7530 C.ar         1 HGF365   0.0000
     6 N8          38.4930     5.2850    13.3410 N.ar         1 HGF365   0.0000
     7 C9          37.5340     4.7980    14.1870 C.ar         1 HGF365   0.0000
     8 C10         37.6180     5.1010    15.5660 C.ar         1 HGF365   0.0000
     9 C12         36.4260     3.9640    13.6410 C.ar         1 HGF365   0.0000
    10 C13         35.9400     4.1210    12.3230 C.ar         1 HGF365   0.0000
    11 N15         34.9190     3.3260    11.8780 N.ar         1 HGF365   0.0000
    12 C16         34.3220     2.3650    12.6470 C.ar         1 HGF365   0.0000
    13 C18         34.7620     2.1560    13.9790 C.ar         1 HGF365   0.0000
    14 C19         35.8150     2.9730    14.4430 C.ar         1 HGF365   0.0000
    15 O21         34.2090     1.1910    14.8440 O.3          1 HGF365   0.0000
    16 C22         34.9940     0.1580    15.4760 C.3          1 HGF365   0.0000
    17 C25         34.2240    -0.4120    16.6910 C.3          1 HGF365   0.0000
    18 O28         34.3480     0.5030    17.8000 O.3          1 HGF365   0.0000
    19 C29         33.1310     0.6530    18.5640 C.3          1 HGF365   0.0000
    20 C33         40.7450     7.2250    15.5820 C.ar         1 HGF365   0.0000
    21 C35         40.8530     7.5600    16.9590 C.ar         1 HGF365   0.0000
    22 C37         39.8740     7.0560    17.8450 C.ar         1 HGF365   0.0000
    23 C38         39.5980     7.1560    19.3310 C.2          1 HGF365   0.0000
    24 C39         38.4960     6.4120    19.5640 C.2          1 HGF365   0.0000
    25 C40         37.8840     6.2340    20.9390 C.3          1 HGF365   0.0000
    26 C43         38.8900     6.6230    22.0740 C.3          1 HGF365   0.0000
    27 N46         39.9310     7.6110    21.7110 N.am         1 HGF365   0.0000
    28 C48         40.2940     7.8820    20.4240 C.2          1 HGF365   0.0000
    29 O49         41.1610     8.7000    20.1740 O.2          1 HGF365   0.0000
    30 H1          37.2441     5.3087    18.3847 H            1 HGF365   0.0000
    31 H2          40.2112     6.3925    13.0879 H            1 HGF365   0.0000
    32 H3          36.9310     4.7513    16.2030 H            1 HGF365   0.0000
    33 H4          36.3404     4.8098    11.7186 H            1 HGF365   0.0000
    34 H5          33.5782     1.8120    12.2715 H            1 HGF365   0.0000
    35 H6          36.1430     2.8455    15.3790 H            1 HGF365   0.0000
    36 H7          35.8637     0.5432    15.7845 H            1 HGF365   0.0000
    37 H8          35.1687    -0.5756    14.8192 H            1 HGF365   0.0000
    38 H9          34.6084    -1.2997    16.9446 H            1 HGF365   0.0000
    39 H10         33.2587    -0.5222    16.4541 H            1 HGF365   0.0000
    40 H11         33.2850     1.2971    19.3133 H            1 HGF365   0.0000
    41 H12         32.4052     1.0000    17.9700 H            1 HGF365   0.0000
    42 H13         32.8604    -0.2343    18.9375 H            1 HGF365   0.0000
    43 H14         41.4260     7.5650    14.9334 H            1 HGF365   0.0000
    44 H15         41.6001     8.1357    17.2913 H            1 HGF365   0.0000
    45 H16         37.6191     5.2767    21.0546 H            1 HGF365   0.0000
    46 H17         37.0734     6.8152    21.0109 H            1 HGF365   0.0000
    47 H18         39.3521     5.7878    22.3721 H            1 HGF365   0.0000
    48 H19         38.3617     7.0011    22.8342 H            1 HGF365   0.0000
    49 H20         40.3923     8.1056    22.4476 H            1 HGF365   0.0000
@<TRIPOS>BOND
     1    1    2       1
     2    1   24       1
     3    2    3      ar
     4    2   22      ar
     5    3    4      ar
     6    3    8      ar
     7    4    5      ar
     8    4   20      ar
     9    5    6      ar
    10    6    7      ar
    11    7    8      ar
    12    7    9       1
    13    9   10      ar
    14    9   14      ar
    15   10   11      ar
    16   11   12      ar
    17   12   13      ar
    18   13   14      ar
    19   13   15       1
    20   15   16       1
    21   16   17       1
    22   17   18       1
    23   18   19       1
    24   20   21      ar
    25   21   22      ar
    26   22   23       1
    27   23   24       2
    28   23   28       1
    29   24   25       1
    30   25   26       1
    31   26   27       1
    32   27   28      am
    33   28   29       2
    34    1   30       1
    35    5   31       1
    36    8   32       1
    37   10   33       1
    38   12   34       1
    39   14   35       1
    40   16   36       1
    41   16   37       1
    42   17   38       1
    43   17   39       1
    44   19   40       1
    45   19   41       1
    46   19   42       1
    47   20   43       1
    48   21   44       1
    49   25   45       1
    50   25   46       1
    51   26   47       1
    52   26   48       1
    53   27   49       1
@<TRIPOS>SUBSTRUCTURE
     1 HGF365      1 GROUP             4 A     HGF     0 **** HGF A 365
