@<TRIPOS>MOLECULE
2yvw_EPU_1_ligand
   70    72     1     0     0
SMALL
NO_CHARGES


@<TRIPOS>ATOM
     1 N1U        100.8430    44.2350    10.6130 N.pl3        1 EPU501   0.0000
     2 C2U        102.1840    44.2960    10.8760 C.2          1 EPU501   0.0000
     3 N3U        102.9920    43.2540    10.5270 N.pl3        1 EPU501   0.0000
     4 C4U        102.4830    42.1350     9.9130 C.2          1 EPU501   0.0000
     5 C5U        101.0810    42.0550     9.6290 C.2          1 EPU501   0.0000
     6 C6U        100.2910    43.1080     9.9860 C.2          1 EPU501   0.0000
     7 O2U        102.6660    45.2810    11.4230 O.2          1 EPU501   0.0000
     8 O4U        103.2170    41.2140     9.6080 O.2          1 EPU501   0.0000
     9 C1D         99.9640    45.3590    10.9890 C.3          1 EPU501   0.0000
    10 C2D         99.5480    46.1610     9.7320 C.3          1 EPU501   0.0000
    11 O2D        100.4650    47.1860     9.3720 O.3          1 EPU501   0.0000
    12 C3D         98.1270    46.6680    10.0680 C.3          1 EPU501   0.0000
    13 C4D         97.6400    45.7130    11.2010 C.3          1 EPU501   0.0000
    14 O4D         98.7380    44.8610    11.5660 O.3          1 EPU501   0.0000
    15 O3D         98.2240    48.0050    10.5890 O.3          1 EPU501   0.0000
    16 C5D         96.5400    44.7900    10.6330 C.3          1 EPU501   0.0000
    17 O5D         97.1150    44.1730     9.4600 O.3          1 EPU501   0.0000
    18 PA          96.3820    42.8060     9.0050 P.3          1 EPU501   0.0000
    19 O1A         97.4270    41.8270     8.6370 O.co2        1 EPU501   0.0000
    20 O2A         95.4760    42.1930    10.1800 O.co2        1 EPU501  -1.0000
    21 O3A         95.4310    43.1850     7.7580 O.3          1 EPU501   0.0000
    22 PB          95.7510    42.3420     6.4110 P.3          1 EPU501   0.0000
    23 O1B         95.7990    40.8870     6.6850 O.co2        1 EPU501   0.0000
    24 O2B         97.1430    42.8140     5.7820 O.co2        1 EPU501  -1.0000
    25 C1          93.3310    42.0590     5.7120 C.3          1 EPU501   0.0000
    26 C2          92.2920    42.3780     4.6060 C.3          1 EPU501   0.0000
    27 C3          92.0860    43.9120     4.5610 C.3          1 EPU501   0.0000
    28 C4          91.5400    44.3550     5.9350 C.3          1 EPU501   0.0000
    29 C5          92.5690    43.9740     7.0230 C.3          1 EPU501   0.0000
    30 C6          92.0480    44.3700     8.4190 C.3          1 EPU501   0.0000
    31 C7          92.6280    40.6050     2.9220 C.2          1 EPU501   0.0000
    32 C8          93.1330    40.1570     1.5740 C.3          1 EPU501   0.0000
    33 N2          92.8080    41.8970     3.3150 N.am         1 EPU501   0.0000
    34 O1          94.5840    42.6910     5.3490 O.3          1 EPU501   0.0000
    35 O3          91.1240    44.2660     3.5470 O.3          1 EPU501   0.0000
    36 O4          91.3420    45.7710     5.9280 O.3          1 EPU501   0.0000
    37 O5          92.8270    42.5330     7.0110 O.3          1 EPU501   0.0000
    38 O6          90.7780    43.7610     8.6780 O.3          1 EPU501   0.0000
    39 O7          92.0640    39.8060     3.6490 O.2          1 EPU501   0.0000
    40 C1E         91.5680    44.5470     1.1450 C.2          1 EPU501   0.0000
    41 O1E         92.5270    44.5160     0.3940 O.co2        1 EPU501   0.0000
    42 O2E         90.3660    44.1470     0.7120 O.co2        1 EPU501  -1.0000
    43 C2E         91.6990    45.0240     2.5370 C.2          1 EPU501   0.0000
    44 C3E         92.2940    46.2110     2.7810 C.2          1 EPU501   0.0000
    45 H3U        103.9716    43.3053    10.7213 H            1 EPU501   0.0000
    46 H5U        100.6924    41.2495     9.1815 H            1 EPU501   0.0000
    47 H6U         99.3091    43.0764     9.7990 H            1 EPU501   0.0000
    48 H1D        100.4313    45.9578    11.6394 H            1 EPU501   0.0000
    49 H2D         99.4775    45.5231     8.9651 H            1 EPU501   0.0000
    50 H6         101.2273    47.1937    10.0192 H            1 EPU501   0.0000
    51 H3D         97.5251    46.6279     9.2705 H            1 EPU501   0.0000
    52 H4D         97.3062    46.2294    11.9896 H            1 EPU501   0.0000
    53 H9          97.3095    48.3437    10.8102 H            1 EPU501   0.0000
    54 H5D1        95.7310    45.3231    10.3855 H            1 EPU501   0.0000
    55 H5D2        96.2877    44.0938    11.3050 H            1 EPU501   0.0000
    56 H12         93.4661    41.0692     5.7564 H            1 EPU501   0.0000
    57 H13         91.4250    41.9254     4.8145 H            1 EPU501   0.0000
    58 H14         92.9572    44.3674     4.3778 H            1 EPU501   0.0000
    59 H15         90.6713    43.8943     6.1168 H            1 EPU501   0.0000
    60 H16         93.4251    44.4593     6.8454 H            1 EPU501   0.0000
    61 H17         91.9501    45.3642     8.4628 H            1 EPU501   0.0000
    62 H18         92.7036    44.0688     9.1114 H            1 EPU501   0.0000
    63 H19         92.9211    39.1884     1.4437 H            1 EPU501   0.0000
    64 H20         92.6899    40.6946     0.8566 H            1 EPU501   0.0000
    65 H21         94.1229    40.2908     1.5276 H            1 EPU501   0.0000
    66 H22         93.2992    42.5291     2.7157 H            1 EPU501   0.0000
    67 H23         90.4143    45.9763     5.6163 H            1 EPU501   0.0000
    68 H24         90.6791    43.6011     9.6602 H            1 EPU501   0.0000
    69 H3E1        92.6986    46.7314     2.0290 H            1 EPU501   0.0000
    70 H3E2        92.3302    46.5698     3.7137 H            1 EPU501   0.0000
@<TRIPOS>BOND
     1    1    2       1
     2    1    6       1
     3    1    9       1
     4    2    3       1
     5    2    7       2
     6    3    4       1
     7    4    5       1
     8    4    8       2
     9    5    6       2
    10    9   10       1
    11    9   14       1
    12   10   11       1
    13   10   12       1
    14   12   13       1
    15   12   15       1
    16   13   14       1
    17   13   16       1
    18   16   17       1
    19   17   18       1
    20   18   19      ar
    21   18   20      ar
    22   18   21       1
    23   21   22       1
    24   22   23      ar
    25   22   24      ar
    26   22   34       1
    27   25   26       1
    28   25   34       1
    29   25   37       1
    30   26   27       1
    31   26   33       1
    32   27   28       1
    33   27   35       1
    34   28   29       1
    35   28   36       1
    36   29   30       1
    37   29   37       1
    38   30   38       1
    39   31   32       1
    40   31   33      am
    41   31   39       2
    42   35   43       1
    43   40   41      ar
    44   40   42      ar
    45   40   43       1
    46   43   44       2
    47    3   45       1
    48    5   46       1
    49    6   47       1
    50    9   48       1
    51   10   49       1
    52   11   50       1
    53   12   51       1
    54   13   52       1
    55   15   53       1
    56   16   54       1
    57   16   55       1
    58   44   70       1
    59   44   69       1
    60   25   56       1
    61   26   57       1
    62   27   58       1
    63   28   59       1
    64   29   60       1
    65   30   61       1
    66   30   62       1
    67   32   63       1
    68   32   64       1
    69   32   65       1
    70   33   66       1
    71   36   67       1
    72   38   68       1
@<TRIPOS>SUBSTRUCTURE
     1 EPU501      1 GROUP             4 A     EPU     0 **** EPU A 501
