@<TRIPOS>MOLECULE
4tsr_IHS_1_ligand
   42    42     1     0     0
SMALL
NO_CHARGES


@<TRIPOS>ATOM
     1 C1          -7.1360   -12.6170   -24.3400 C.3          1 IHS505   0.0000
     2 O1          -6.4990   -12.5580   -23.1350 O.3          1 IHS505   0.0000
     3 S1          -7.1720   -13.4210   -22.1160 S.o2         1 IHS505   0.0000
     4 C2          -6.4420   -13.7070   -25.1220 C.3          1 IHS505   0.0000
     5 O2          -8.6390   -12.9690   -21.8520 O.co2        1 IHS505   0.0000
     6 S2          -4.0720   -14.6220   -25.0160 S.o2         1 IHS505   0.0000
     7 C3          -6.9350   -13.7690   -26.4890 C.3          1 IHS505   0.0000
     8 O3          -6.2820   -13.3520   -20.8660 O.co2        1 IHS505   0.0000
     9 S3          -6.8110   -16.0010   -27.5820 S.o2         1 IHS505   0.0000
    10 C4          -6.8150   -12.4440   -27.1070 C.3          1 IHS505   0.0000
    11 O4          -7.1910   -14.8400   -22.6700 O.co2        1 IHS505  -1.0000
    12 S4          -6.7420   -12.3520   -29.6720 S.o2         1 IHS505   0.0000
    13 C5          -7.5280   -11.3900   -26.2850 C.3          1 IHS505   0.0000
    14 S5          -8.5960    -9.4790   -27.2390 S.o2         1 IHS505   0.0000
    15 C6          -7.0010   -11.2930   -24.9180 C.3          1 IHS505   0.0000
    16 S6          -7.1280    -9.1450   -23.4050 S.o2         1 IHS505   0.0000
    17 O12         -5.0360   -13.4520   -25.1470 O.3          1 IHS505   0.0000
    18 O13         -6.0930   -14.7010   -27.1990 O.3          1 IHS505   0.0000
    19 O14         -7.4800   -12.5340   -28.3280 O.3          1 IHS505   0.0000
    20 O15         -7.2920   -10.1350   -26.8830 O.3          1 IHS505   0.0000
    21 O16         -7.8260   -10.3560   -24.1350 O.3          1 IHS505   0.0000
    22 O22         -4.7450   -15.8100   -24.3010 O.co2        1 IHS505   0.0000
    23 O23         -5.8360   -16.9270   -28.3260 O.co2        1 IHS505   0.0000
    24 O24         -6.6930   -13.7650   -30.2810 O.co2        1 IHS505   0.0000
    25 O25         -9.5070    -9.7780   -26.0610 O.co2        1 IHS505   0.0000
    26 O26         -6.3470    -8.3480   -24.4410 O.co2        1 IHS505   0.0000
    27 O32         -3.6930   -15.0230   -26.4470 O.co2        1 IHS505   0.0000
    28 O33         -8.0060   -15.6760   -28.5230 O.co2        1 IHS505   0.0000
    29 O34         -7.6100   -11.3630   -30.4900 O.co2        1 IHS505   0.0000
    30 O35         -8.3940    -7.9770   -27.4780 O.co2        1 IHS505   0.0000
    31 O36         -8.1570    -8.2150   -22.6570 O.co2        1 IHS505   0.0000
    32 O42         -2.8730   -14.1790   -24.1490 O.co2        1 IHS505  -1.0000
    33 O43         -7.3320   -16.6400   -26.2760 O.co2        1 IHS505  -1.0000
    34 O44         -5.3010   -11.8230   -29.5000 O.co2        1 IHS505  -1.0000
    35 O45         -9.1290   -10.1740   -28.5240 O.co2        1 IHS505  -1.0000
    36 O46         -6.1050    -9.6890   -22.4000 O.co2        1 IHS505  -1.0000
    37 H1          -8.1016   -12.8429   -24.2115 H            1 IHS505   0.0000
    38 H2          -6.6070   -14.5860   -24.6747 H            1 IHS505   0.0000
    39 H3          -7.8864   -14.0765   -26.5037 H            1 IHS505   0.0000
    40 H4          -5.8546   -12.2002   -27.2421 H            1 IHS505   0.0000
    41 H5          -8.5096   -11.5795   -26.2615 H            1 IHS505   0.0000
    42 H6          -6.0438   -11.0038   -24.9253 H            1 IHS505   0.0000
@<TRIPOS>BOND
     1    1    2       1
     2    1    4       1
     3    1   15       1
     4    2    3       1
     5    3    5      ar
     6    3    8      ar
     7    3   11      ar
     8    4    7       1
     9    4   17       1
    10    6   17       1
    11    6   22      ar
    12    6   27      ar
    13    6   32      ar
    14    7   10       1
    15    7   18       1
    16    9   18       1
    17    9   23      ar
    18    9   28      ar
    19    9   33      ar
    20   10   13       1
    21   10   19       1
    22   12   19       1
    23   12   24      ar
    24   12   29      ar
    25   12   34      ar
    26   13   15       1
    27   13   20       1
    28   14   20       1
    29   14   25      ar
    30   14   30      ar
    31   14   35      ar
    32   15   21       1
    33   16   21       1
    34   16   26      ar
    35   16   31      ar
    36   16   36      ar
    37    1   37       1
    38    4   38       1
    39   15   42       1
    40    7   39       1
    41   10   40       1
    42   13   41       1
@<TRIPOS>SUBSTRUCTURE
     1 IHS505      1 GROUP             4 A     IHS     0 **** IHS A 505
