@<TRIPOS>MOLECULE
2qeo_LNR_2_ligand
   24    24     1     0     0
SMALL
NO_CHARGES


@<TRIPOS>ATOM
     1 OAC          5.4410   -22.6720    17.2140 O.3          1 LNR200   0.0000
     2 CAJ          6.6690   -22.0980    17.4630 C.ar         1 LNR200   0.0000
     3 CAG          6.8130   -20.8050    17.9760 C.ar         1 LNR200   0.0000
     4 CAI          7.8310   -22.7990    17.2160 C.ar         1 LNR200   0.0000
     5 OAB          7.7670   -24.0650    16.7170 O.3          1 LNR200   0.0000
     6 CAE          9.0620   -22.2030    17.4890 C.ar         1 LNR200   0.0000
     7 CAF          9.1430   -21.0040    17.9690 C.ar         1 LNR200   0.0000
     8 CAK          8.0970   -20.2840    18.2170 C.ar         1 LNR200   0.0000
     9 CAL          8.2540   -18.9020    18.7740 C.3          1 LNR200   0.0000
    10 OAD          8.7900   -17.9700    17.8250 O.3          1 LNR200   0.0000
    11 CAH          9.1200   -18.8870    20.0370 C.3          1 LNR200   0.0000
    12 NAA          8.6990   -17.8450    20.9680 N.4          1 LNR200   1.0000
    13 HAC          4.6026   -22.1599    17.4008 H            1 LNR200   0.0000
    14 HAG          6.0036   -20.2512    18.1713 H            1 LNR200   0.0000
    15 HAB          8.6084   -24.5747    16.5373 H            1 LNR200   0.0000
    16 HAE          9.9023   -22.7145    17.3095 H            1 LNR200   0.0000
    17 HAF         10.0473   -20.6198    18.1551 H            1 LNR200   0.0000
    18 HAL          7.3437   -18.5775    19.0311 H            1 LNR200   0.0000
    19 HAD          8.0412   -17.5398    17.3208 H            1 LNR200   0.0000
    20 HAH1        10.0712   -18.7231    19.7757 H            1 LNR200   0.0000
    21 HAH2         9.0472   -19.7753    20.4904 H            1 LNR200   0.0000
    22 HAA1         8.0116   -18.2145    21.5933 H            1 LNR200   0.0000
    23 HAA2         9.4892   -17.5268    21.4917 H            1 LNR200   0.0000
    24 HAA3         8.3077   -17.0797    20.4570 H            1 LNR200   0.0000
@<TRIPOS>BOND
     1    1    2       1
     2    2    3      ar
     3    2    4      ar
     4    3    8      ar
     5    4    5       1
     6    4    6      ar
     7    6    7      ar
     8    7    8      ar
     9    8    9       1
    10    9   10       1
    11    9   11       1
    12   11   12       1
    13    1   13       1
    14    3   14       1
    15    5   15       1
    16    6   16       1
    17    7   17       1
    18    9   18       1
    19   10   19       1
    20   11   20       1
    21   11   21       1
    22   12   22       1
    23   12   23       1
    24   12   24       1
@<TRIPOS>SUBSTRUCTURE
     1 LNR200      1 GROUP             4 B     LNR     0 **** LNR B 200
