@<TRIPOS>MOLECULE
4ng4_ADP_3_ligand
   39    41     1     0     0
SMALL
NO_CHARGES


@<TRIPOS>ATOM
     1 PB          17.9160    35.4870    32.3150 P.3          1 ADP402   0.0000
     2 O1B         16.5520    36.1360    32.2440 O.co2        1 ADP402   0.0000
     3 O2B         17.9090    34.1370    32.9920 O.co2        1 ADP402  -1.0000
     4 O3B         18.6540    35.4770    31.0000 O.co2        1 ADP402  -1.0000
     5 PA          19.8140    36.1240    34.4360 P.3          1 ADP402   0.0000
     6 O1A         19.5660    34.6930    34.8550 O.co2        1 ADP402   0.0000
     7 O2A         21.2070    36.5230    34.0090 O.co2        1 ADP402  -1.0000
     8 O3A         18.7680    36.5170    33.2520 O.3          1 ADP402   0.0000
     9 O5'         19.4530    37.0830    35.6910 O.3          1 ADP402   0.0000
    10 C5'         18.2090    37.0980    36.4070 C.3          1 ADP402   0.0000
    11 C4'         18.4740    37.3650    37.8900 C.3          1 ADP402   0.0000
    12 O4'         18.9240    38.7140    38.0740 O.3          1 ADP402   0.0000
    13 C3'         17.2480    37.2010    38.7900 C.3          1 ADP402   0.0000
    14 O3'         17.4440    36.1220    39.7110 O.3          1 ADP402   0.0000
    15 C2'         17.0960    38.5190    39.5400 C.3          1 ADP402   0.0000
    16 O2'         16.7730    38.3290    40.9260 O.3          1 ADP402   0.0000
    17 C1'         18.4580    39.1890    39.3490 C.3          1 ADP402   0.0000
    18 N9          18.4110    40.6850    39.4560 N.pl3        1 ADP402   0.0000
    19 C8          17.7700    41.5350    38.6250 C.2          1 ADP402   0.0000
    20 N7          17.9360    42.8210    39.0430 N.2          1 ADP402   0.0000
    21 C5          18.7010    42.8200    40.1570 C.ar         1 ADP402   0.0000
    22 C6          19.2610    43.8290    41.1000 C.ar         1 ADP402   0.0000
    23 N6          19.0440    45.1560    40.9510 N.pl3        1 ADP402   0.0000
    24 N1          20.0080    43.3860    42.1350 N.ar         1 ADP402   0.0000
    25 C2          20.2530    42.0730    42.3280 C.ar         1 ADP402   0.0000
    26 N3          19.7770    41.1100    41.5130 N.ar         1 ADP402   0.0000
    27 C4          19.0100    41.4040    40.4260 C.ar         1 ADP402   0.0000
    28 H5'1        17.7550    36.2130    36.3041 H            1 ADP402   0.0000
    29 H5'2        17.6217    37.8187    36.0388 H            1 ADP402   0.0000
    30 H4'         19.1897    36.7419    38.2056 H            1 ADP402   0.0000
    31 H3'         16.4357    37.0302    38.2323 H            1 ADP402   0.0000
    32 H5          16.5612    35.7070    39.9310 H            1 ADP402   0.0000
    33 H2'         16.3865    39.0725    39.1038 H            1 ADP402   0.0000
    34 H7          15.7795    38.2996    41.0357 H            1 ADP402   0.0000
    35 H1'         19.0767    38.8450    40.0553 H            1 ADP402   0.0000
    36 H9          17.2479    41.2596    37.8178 H            1 ADP402   0.0000
    37 H10         19.4365    45.8033    41.6044 H            1 ADP402   0.0000
    38 H11         18.4911    45.4896    40.1875 H            1 ADP402   0.0000
    39 H12         20.8129    41.8020    43.1109 H            1 ADP402   0.0000
@<TRIPOS>BOND
     1    1    2      ar
     2    1    3      ar
     3    1    4      ar
     4    1    8       1
     5    5    6      ar
     6    5    7      ar
     7    5    8       1
     8    5    9       1
     9    9   10       1
    10   10   11       1
    11   11   12       1
    12   11   13       1
    13   12   17       1
    14   13   14       1
    15   13   15       1
    16   15   16       1
    17   15   17       1
    18   17   18       1
    19   18   19       1
    20   18   27       1
    21   19   20       2
    22   20   21       1
    23   21   22      ar
    24   21   27      ar
    25   22   23       1
    26   22   24      ar
    27   24   25      ar
    28   25   26      ar
    29   26   27      ar
    30   25   39       1
    31   23   38       1
    32   23   37       1
    33   10   28       1
    34   10   29       1
    35   11   30       1
    36   13   31       1
    37   14   32       1
    38   15   33       1
    39   16   34       1
    40   17   35       1
    41   19   36       1
@<TRIPOS>SUBSTRUCTURE
     1 ADP402      1 GROUP             4 C     ADP     0 **** ADP C 402
