@<TRIPOS>MOLECULE
3sfd_FAD_2_ligand
   84    89     1     0     0
SMALL
NO_CHARGES


@<TRIPOS>ATOM
     1 PA          94.5170    57.7030   123.8020 P.3          1 FAD700   0.0000
     2 O1A         93.1450    57.5890   123.1870 O.co2        1 FAD700   0.0000
     3 O2A         95.3650    56.4470   123.9340 O.co2        1 FAD700  -1.0000
     4 O5B         95.3520    58.8070   122.9600 O.3          1 FAD700   0.0000
     5 C5B         96.3890    59.5720   123.5640 C.3          1 FAD700   0.0000
     6 C4B         96.3550    61.0290   123.1070 C.3          1 FAD700   0.0000
     7 O4B         97.5140    61.6900   123.6400 O.3          1 FAD700   0.0000
     8 C3B         96.4390    61.1820   121.5910 C.3          1 FAD700   0.0000
     9 O3B         95.5070    62.1800   121.1630 O.3          1 FAD700   0.0000
    10 C2B         97.8520    61.6710   121.3080 C.3          1 FAD700   0.0000
    11 O2B         97.8990    62.6170   120.2360 O.3          1 FAD700   0.0000
    12 C1B         98.2930    62.3160   122.6110 C.3          1 FAD700   0.0000
    13 N9A         99.7780    62.2270   122.7750 N.pl3        1 FAD700   0.0000
    14 C8A        100.5500    61.1490   123.0210 C.2          1 FAD700   0.0000
    15 N7A        101.8590    61.5240   123.0760 N.2          1 FAD700   0.0000
    16 C5A        101.9000    62.8570   122.8570 C.ar         1 FAD700   0.0000
    17 C6A        102.9750    63.8900   122.7770 C.ar         1 FAD700   0.0000
    18 N6A        104.2910    63.6040   122.9400 N.pl3        1 FAD700   0.0000
    19 N1A        102.6030    65.1630   122.5240 N.ar         1 FAD700   0.0000
    20 C2A        101.3130    65.5050   122.3520 C.ar         1 FAD700   0.0000
    21 N3A        100.3270    64.6010   122.4200 N.ar         1 FAD700   0.0000
    22 C4A        100.5890    63.2870   122.6670 C.ar         1 FAD700   0.0000
    23 N1          88.3710    50.3830   126.8420 N.2          1 FAD700   0.0000
    24 C2          87.0530    50.3270   127.1640 C.2          1 FAD700   0.0000
    25 O2          86.6590    50.8020   128.2680 O.2          1 FAD700   0.0000
    26 N3          86.1830    49.7680   126.3020 N.pl3        1 FAD700   0.0000
    27 C4          86.5940    49.2500   125.1320 C.2          1 FAD700   0.0000
    28 O4          85.7530    48.7320   124.3610 O.2          1 FAD700   0.0000
    29 C4X         87.9480    49.2950   124.7830 C.2          1 FAD700   0.0000
    30 N5          88.3650    48.7740   123.6140 N.2          1 FAD700   0.0000
    31 C5X         89.6560    48.8030   123.2400 C.ar         1 FAD700   0.0000
    32 C6          90.0440    48.2620   122.0170 C.ar         1 FAD700   0.0000
    33 C7          91.3840    48.2860   121.6320 C.ar         1 FAD700   0.0000
    34 C7M         91.7930    47.7020   120.3050 C.3          1 FAD700   0.0000
    35 C8          92.4050    48.8990   122.5280 C.ar         1 FAD700   0.0000
    36 C8M         93.8550    48.9100   122.1210 C.3          1 FAD700   0.0000
    37 C9          92.0180    49.4460   123.7470 C.ar         1 FAD700   0.0000
    38 C9A         90.6790    49.4130   124.1320 C.ar         1 FAD700   0.0000
    39 N10         90.2430    49.9420   125.3660 N.pl3        1 FAD700   0.0000
    40 C10         88.8510    49.8840   125.6740 C.2          1 FAD700   0.0000
    41 C1'         91.2070    50.5850   126.2700 C.3          1 FAD700   0.0000
    42 C2'         91.0720    52.1020   126.0340 C.3          1 FAD700   0.0000
    43 O2'         90.4560    52.3940   124.7660 O.3          1 FAD700   0.0000
    44 C3'         92.3660    52.9140   126.1000 C.3          1 FAD700   0.0000
    45 O3'         93.2050    52.4230   127.1490 O.3          1 FAD700   0.0000
    46 C4'         92.0100    54.3840   126.3490 C.3          1 FAD700   0.0000
    47 O4'         91.0680    54.7730   125.3450 O.3          1 FAD700   0.0000
    48 C5'         93.1840    55.3600   126.3350 C.3          1 FAD700   0.0000
    49 O5'         92.6490    56.6290   125.9560 O.3          1 FAD700   0.0000
    50 P           93.2540    58.0680   126.3810 P.3          1 FAD700   0.0000
    51 O1P         92.1460    59.0970   126.3780 O.co2        1 FAD700   0.0000
    52 O2P         94.0690    57.8700   127.6390 O.co2        1 FAD700  -1.0000
    53 O3P         94.3140    58.4620   125.2210 O.3          1 FAD700   0.0000
    54 H5B1        97.2722    59.1746   123.3148 H            1 FAD700   0.0000
    55 H5B2        96.2780    59.5412   124.5573 H            1 FAD700   0.0000
    56 H4B         95.5255    61.4719   123.4472 H            1 FAD700   0.0000
    57 H3B         96.2642    60.3101   121.1336 H            1 FAD700   0.0000
    58 H5          94.6276    61.7495   120.9597 H            1 FAD700   0.0000
    59 H2B         98.4438    60.8926   121.0985 H            1 FAD700   0.0000
    60 H7          97.3385    63.4120   120.4682 H            1 FAD700   0.0000
    61 H1B         98.0424    63.2835   122.5781 H            1 FAD700   0.0000
    62 H8A        100.2129    60.2156   123.1444 H            1 FAD700   0.0000
    63 H6A1       104.9726    64.3329   122.8768 H            1 FAD700   0.0000
    64 H6A2       104.5795    62.6642   123.1233 H            1 FAD700   0.0000
    65 H2A        101.0840    66.4609   122.1682 H            1 FAD700   0.0000
    66 H13         85.2115    49.7376   126.5370 H            1 FAD700   0.0000
    67 H14         89.3592    47.8548   121.4126 H            1 FAD700   0.0000
    68 H7M1        92.7811    47.8011   120.1876 H            1 FAD700   0.0000
    69 H7M2        91.5497    46.7324   120.2783 H            1 FAD700   0.0000
    70 H7M3        91.3197    48.1848   119.5682 H            1 FAD700   0.0000
    71 H8M1        94.3976    49.3563   122.8326 H            1 FAD700   0.0000
    72 H8M2        94.1740    47.9702   121.9987 H            1 FAD700   0.0000
    73 H8M3        93.9561    49.4108   121.2614 H            1 FAD700   0.0000
    74 H21         92.7006    49.8630   124.3471 H            1 FAD700   0.0000
    75 H1'1        92.1362    50.2825   126.0578 H            1 FAD700   0.0000
    76 H1'2        90.9927    50.3617   127.2209 H            1 FAD700   0.0000
    77 H2'         90.4650    52.4575   126.7448 H            1 FAD700   0.0000
    78 H25         89.5417    51.9898   124.7386 H            1 FAD700   0.0000
    79 H3'         92.8490    52.8353   125.2279 H            1 FAD700   0.0000
    80 H27         94.0470    52.9614   127.1820 H            1 FAD700   0.0000
    81 H4'         91.5608    54.4494   127.2400 H            1 FAD700   0.0000
    82 H29         90.5240    53.9792   125.0729 H            1 FAD700   0.0000
    83 H5'1        93.8725    55.0633   125.6732 H            1 FAD700   0.0000
    84 H5'2        93.5976    55.4165   127.2437 H            1 FAD700   0.0000
@<TRIPOS>BOND
     1    1    2      ar
     2    1    3      ar
     3    1    4       1
     4    1   53       1
     5    4    5       1
     6    5    6       1
     7    6    7       1
     8    6    8       1
     9    7   12       1
    10    8    9       1
    11    8   10       1
    12   10   11       1
    13   10   12       1
    14   12   13       1
    15   13   14       1
    16   13   22       1
    17   14   15       2
    18   15   16       1
    19   16   17      ar
    20   16   22      ar
    21   17   18       1
    22   17   19      ar
    23   19   20      ar
    24   20   21      ar
    25   21   22      ar
    26   23   24       1
    27   23   40       2
    28   24   25       2
    29   24   26       1
    30   26   27       1
    31   27   28       2
    32   27   29       1
    33   29   30       2
    34   29   40       1
    35   30   31       1
    36   31   32      ar
    37   31   38      ar
    38   32   33      ar
    39   33   34       1
    40   33   35      ar
    41   35   36       1
    42   35   37      ar
    43   37   38      ar
    44   38   39       1
    45   39   40       1
    46   39   41       1
    47   41   42       1
    48   42   43       1
    49   42   44       1
    50   44   45       1
    51   44   46       1
    52   46   47       1
    53   46   48       1
    54   48   49       1
    55   49   50       1
    56   50   51      ar
    57   50   52      ar
    58   50   53       1
    59   48   84       1
    60    5   54       1
    61    5   55       1
    62    6   56       1
    63    8   57       1
    64    9   58       1
    65   10   59       1
    66   11   60       1
    67   12   61       1
    68   14   62       1
    69   18   63       1
    70   18   64       1
    71   20   65       1
    72   26   66       1
    73   32   67       1
    74   34   68       1
    75   34   69       1
    76   34   70       1
    77   36   71       1
    78   36   72       1
    79   36   73       1
    80   37   74       1
    81   41   75       1
    82   41   76       1
    83   42   77       1
    84   43   78       1
    85   44   79       1
    86   45   80       1
    87   46   81       1
    88   47   82       1
    89   48   83       1
@<TRIPOS>SUBSTRUCTURE
     1 FAD700      1 GROUP             4 A     FAD     0 **** FAD A 700
