@<TRIPOS>MOLECULE
3wg6_NDP_1_ligand
   73    77     1     0     0
SMALL
NO_CHARGES


@<TRIPOS>ATOM
     1 PA           8.7810    49.2150   -67.6840 P.3          1 NDP3001   0.0000
     2 O1A          9.7260    48.6670   -66.7130 O.co2        1 NDP3001   0.0000
     3 O2A          8.7180    48.2520   -68.8000 O.co2        1 NDP3001  -1.0000
     4 O5B          9.0730    50.6550   -68.2410 O.3          1 NDP3001   0.0000
     5 C5B          8.3100    51.0890   -69.3390 C.3          1 NDP3001   0.0000
     6 C4B          8.9090    52.4310   -69.7530 C.3          1 NDP3001   0.0000
     7 O4B         10.1460    52.1690   -70.4110 O.3          1 NDP3001   0.0000
     8 C3B          8.1120    53.2730   -70.7240 C.3          1 NDP3001   0.0000
     9 O3B          7.9690    54.5270   -70.1100 O.3          1 NDP3001   0.0000
    10 C2B          8.9760    53.4090   -71.9810 C.3          1 NDP3001   0.0000
    11 O2B          9.1030    54.7330   -72.4520 O.3          1 NDP3001   0.0000
    12 C1B         10.3420    53.0020   -71.5390 C.3          1 NDP3001   0.0000
    13 N9A         11.1540    52.2390   -72.5140 N.pl3        1 NDP3001   0.0000
    14 C8A         10.7760    51.1650   -73.2800 C.2          1 NDP3001   0.0000
    15 N7A         11.8610    50.7240   -73.9510 N.2          1 NDP3001   0.0000
    16 C5A         12.9360    51.4920   -73.6210 C.ar         1 NDP3001   0.0000
    17 C6A         14.2740    51.4870   -74.0440 C.ar         1 NDP3001   0.0000
    18 N6A         14.8220    50.4000   -74.6350 N.pl3        1 NDP3001   0.0000
    19 N1A         15.1310    52.4350   -73.5360 N.ar         1 NDP3001   0.0000
    20 C2A         14.6540    53.3370   -72.6090 C.ar         1 NDP3001   0.0000
    21 N3A         13.3230    53.3560   -72.2150 N.ar         1 NDP3001   0.0000
    22 C4A         12.4930    52.4380   -72.7150 C.ar         1 NDP3001   0.0000
    23 O3           7.3210    49.2740   -67.0520 O.3          1 NDP3001   0.0000
    24 PN           6.7230    50.3610   -66.0650 P.3          1 NDP3001   0.0000
    25 O1N          6.2230    51.5420   -66.7760 O.co2        1 NDP3001   0.0000
    26 O2N          7.3290    50.5010   -64.7540 O.co2        1 NDP3001  -1.0000
    27 O5D          5.4030    49.4160   -65.7190 O.3          1 NDP3001   0.0000
    28 C5D          4.5720    48.8330   -66.6900 C.3          1 NDP3001   0.0000
    29 C4D          3.1370    48.6030   -66.1640 C.3          1 NDP3001   0.0000
    30 O4D          3.0800    47.6830   -65.0640 O.3          1 NDP3001   0.0000
    31 C3D          2.4220    49.8500   -65.6700 C.3          1 NDP3001   0.0000
    32 O3D          1.9350    50.7060   -66.6720 O.3          1 NDP3001   0.0000
    33 C2D          1.3310    49.2510   -64.8160 C.3          1 NDP3001   0.0000
    34 O2D          0.2970    48.8360   -65.6840 O.3          1 NDP3001   0.0000
    35 C1D          2.0200    48.0450   -64.1720 C.3          1 NDP3001   0.0000
    36 N1N          2.5810    48.4600   -62.8420 N.ar         1 NDP3001   1.0000
    37 C2N          2.0320    47.8830   -61.7200 C.ar         1 NDP3001   0.0000
    38 C3N          2.3860    48.2570   -60.4320 C.ar         1 NDP3001   0.0000
    39 C7N          1.7500    47.5660   -59.2460 C.2          1 NDP3001   0.0000
    40 O7N          2.0970    48.0780   -57.9890 O.2          1 NDP3001   0.0000
    41 N7N          0.9280    46.5060   -59.3130 N.am         1 NDP3001   0.0000
    42 C4N          3.4390    49.3630   -60.1960 C.ar         1 NDP3001   0.0000
    43 C5N          3.9860    49.9430   -61.4910 C.ar         1 NDP3001   0.0000
    44 C6N          3.5550    49.4640   -62.7180 C.ar         1 NDP3001   0.0000
    45 P2B          8.5100    55.1670   -73.8800 P.3          1 NDP3001   0.0000
    46 O1X          9.1840    56.4810   -74.0840 O.co2        1 NDP3001   0.0000
    47 O2X          8.7940    54.0810   -74.8780 O.co2        1 NDP3001  -1.0000
    48 O3X          7.0450    55.3440   -73.6940 O.co2        1 NDP3001  -1.0000
    49 H5B1         7.3519    51.2012   -69.0754 H            1 NDP3001   0.0000
    50 H5B2         8.3743    50.4318   -70.0900 H            1 NDP3001   0.0000
    51 H4B          9.0893    52.9709   -68.9308 H            1 NDP3001   0.0000
    52 H3B          7.2249    52.8594   -70.9291 H            1 NDP3001   0.0000
    53 H5           8.3835    55.2302   -70.6877 H            1 NDP3001   0.0000
    54 H2B          8.6439    52.8056   -72.7060 H            1 NDP3001   0.0000
    55 H1B         10.8499    53.8164   -71.2584 H            1 NDP3001   0.0000
    56 H8A          9.8561    50.7764   -73.3321 H            1 NDP3001   0.0000
    57 H6A1        15.7778    50.4190   -74.9285 H            1 NDP3001   0.0000
    58 H6A2        14.2712    49.5778   -74.7783 H            1 NDP3001   0.0000
    59 H2A         15.2871    53.9988   -72.2075 H            1 NDP3001   0.0000
    60 H5D1         4.9611    47.9526   -66.9611 H            1 NDP3001   0.0000
    61 H5D2         4.5310    49.4383   -67.4850 H            1 NDP3001   0.0000
    62 H4D          2.5963    48.2178   -66.9119 H            1 NDP3001   0.0000
    63 H3D          3.0445    50.3656   -65.0813 H            1 NDP3001   0.0000
    64 H16          2.3604    51.6060   -66.5773 H            1 NDP3001   0.0000
    65 H2D          1.0005    49.8987   -64.1295 H            1 NDP3001   0.0000
    66 H18         -0.1761    48.0496   -65.2868 H            1 NDP3001   0.0000
    67 H1D          1.3764    47.2875   -64.0628 H            1 NDP3001   0.0000
    68 H2N          1.3483    47.1629   -61.8382 H            1 NDP3001   0.0000
    69 H7N1         0.5517    46.1113   -58.4748 H            1 NDP3001   0.0000
    70 H7N2         0.6923    46.1114   -60.2011 H            1 NDP3001   0.0000
    71 H4N          3.7298    49.6652   -59.2882 H            1 NDP3001   0.0000
    72 H5N          4.6637    50.6776   -61.4569 H            1 NDP3001   0.0000
    73 H6N          3.9543    49.8495   -63.5499 H            1 NDP3001   0.0000
@<TRIPOS>BOND
     1    1    2      ar
     2    1    3      ar
     3    1    4       1
     4    1   23       1
     5    4    5       1
     6    5    6       1
     7    6    7       1
     8    6    8       1
     9    7   12       1
    10    8    9       1
    11    8   10       1
    12   10   11       1
    13   10   12       1
    14   11   45       1
    15   12   13       1
    16   13   14       1
    17   13   22       1
    18   14   15       2
    19   15   16       1
    20   16   17      ar
    21   16   22      ar
    22   17   18       1
    23   17   19      ar
    24   19   20      ar
    25   20   21      ar
    26   21   22      ar
    27   23   24       1
    28   24   25      ar
    29   24   26      ar
    30   24   27       1
    31   27   28       1
    32   28   29       1
    33   29   30       1
    34   29   31       1
    35   30   35       1
    36   31   32       1
    37   31   33       1
    38   33   34       1
    39   33   35       1
    40   35   36       1
    41   36   37      ar
    42   36   44      ar
    43   37   38      ar
    44   38   39       1
    45   38   42      ar
    46   39   40       2
    47   39   41      am
    48   42   43      ar
    49   43   44      ar
    50   45   46      ar
    51   45   47      ar
    52   45   48      ar
    53   43   72       1
    54    5   49       1
    55    5   50       1
    56    6   51       1
    57    8   52       1
    58    9   53       1
    59   10   54       1
    60   12   55       1
    61   14   56       1
    62   18   57       1
    63   18   58       1
    64   20   59       1
    65   44   73       1
    66   28   60       1
    67   28   61       1
    68   29   62       1
    69   31   63       1
    70   32   64       1
    71   33   65       1
    72   34   66       1
    73   35   67       1
    74   37   68       1
    75   41   69       1
    76   41   70       1
    77   42   71       1
@<TRIPOS>SUBSTRUCTURE
     1 NDP3001     1 GROUP             4 A     NDP     0 **** NDP A3001
