@<TRIPOS>MOLECULE
3h3f_NAI_6_ligand
   71    75     1     0     0
SMALL
NO_CHARGES


@<TRIPOS>ATOM
     1 PA         -26.4250    37.8440   -94.7990 P.3          1 NAI332   0.0000
     2 O1A        -26.4470    39.0230   -95.7780 O.co2        1 NAI332   0.0000
     3 O2A        -25.5880    36.6150   -94.9850 O.co2        1 NAI332  -1.0000
     4 O5B        -27.9280    37.2660   -94.4900 O.3          1 NAI332   0.0000
     5 C5B        -29.0240    38.1480   -94.3100 C.3          1 NAI332   0.0000
     6 C4B        -30.1830    37.2020   -94.4940 C.3          1 NAI332   0.0000
     7 O4B        -31.3630    37.9570   -94.5120 O.3          1 NAI332   0.0000
     8 C3B        -30.1100    36.4720   -95.8260 C.3          1 NAI332   0.0000
     9 O3B        -30.1010    35.1050   -95.4960 O.3          1 NAI332   0.0000
    10 C2B        -31.4300    36.7770   -96.4740 C.3          1 NAI332   0.0000
    11 O2B        -32.0750    35.6890   -97.1480 O.3          1 NAI332   0.0000
    12 C1B        -32.2330    37.1350   -95.2430 C.3          1 NAI332   0.0000
    13 N9A        -33.2960    37.9200   -95.8040 N.pl3        1 NAI332   0.0000
    14 C8A        -33.1600    38.7710   -96.8370 C.2          1 NAI332   0.0000
    15 N7A        -34.3960    39.2680   -97.1060 N.2          1 NAI332   0.0000
    16 C5A        -35.2490    38.7230   -96.1950 C.ar         1 NAI332   0.0000
    17 C6A        -36.5850    38.8410   -95.9860 C.ar         1 NAI332   0.0000
    18 N6A        -37.3400    39.6710   -96.7430 N.pl3        1 NAI332   0.0000
    19 N1A        -37.1280    38.1200   -95.0150 N.ar         1 NAI332   0.0000
    20 C2A        -36.4040    37.2910   -94.2510 C.ar         1 NAI332   0.0000
    21 N3A        -35.0970    37.1620   -94.4450 N.ar         1 NAI332   0.0000
    22 C4A        -34.5310    37.8680   -95.3990 C.ar         1 NAI332   0.0000
    23 O3         -26.1660    38.7300   -93.4810 O.3          1 NAI332   0.0000
    24 PN         -25.3160    38.5500   -92.1440 P.3          1 NAI332   0.0000
    25 O1N        -23.8880    38.4750   -92.5490 O.co2        1 NAI332   0.0000
    26 O2N        -26.0210    37.5840   -91.1900 O.co2        1 NAI332  -1.0000
    27 O5D        -25.6320    40.0300   -91.5870 O.3          1 NAI332   0.0000
    28 C5D        -26.9350    40.1600   -91.0390 C.3          1 NAI332   0.0000
    29 C4D        -27.1720    41.6380   -90.8680 C.3          1 NAI332   0.0000
    30 O4D        -26.5660    42.0050   -89.6440 O.3          1 NAI332   0.0000
    31 C3D        -26.4320    42.4250   -91.9030 C.3          1 NAI332   0.0000
    32 O3D        -27.2810    43.5600   -92.1060 O.3          1 NAI332   0.0000
    33 C2D        -25.1860    42.9640   -91.2370 C.3          1 NAI332   0.0000
    34 O2D        -24.9360    44.2900   -91.7210 O.3          1 NAI332   0.0000
    35 C1D        -25.6610    43.0880   -89.8350 C.3          1 NAI332   0.0000
    36 N1N        -24.6100    43.0420   -88.8240 N.pl3        1 NAI332   0.0000
    37 C2N        -24.8730    43.8280   -87.7850 C.2          1 NAI332   0.0000
    38 C3N        -23.9940    43.8590   -86.7350 C.2          1 NAI332   0.0000
    39 C7N        -24.3710    44.7940   -85.6650 C.2          1 NAI332   0.0000
    40 O7N        -23.4220    45.2620   -84.8660 O.2          1 NAI332   0.0000
    41 N7N        -25.5710    45.1760   -85.5820 N.am         1 NAI332   0.0000
    42 C4N        -22.8150    43.1180   -86.7450 C.3          1 NAI332   0.0000
    43 C5N        -22.5610    42.3000   -87.8500 C.2          1 NAI332   0.0000
    44 C6N        -23.4920    42.2670   -88.8970 C.2          1 NAI332   0.0000
    45 H5B1       -29.0289    38.8738   -94.9979 H            1 NAI332   0.0000
    46 H5B2       -29.0226    38.5547   -93.3964 H            1 NAI332   0.0000
    47 H4B        -30.2096    36.5425   -93.7428 H            1 NAI332   0.0000
    48 H3B        -29.3261    36.7471   -96.3825 H            1 NAI332   0.0000
    49 H5         -30.9370    34.8771   -94.9969 H            1 NAI332   0.0000
    50 H2B        -31.3483    37.5671   -97.0816 H            1 NAI332   0.0000
    51 H7         -32.6703    35.2053   -96.5064 H            1 NAI332   0.0000
    52 H1B        -32.5535    36.3383   -94.7305 H            1 NAI332   0.0000
    53 H8A        -32.3112    38.9952   -97.3157 H            1 NAI332   0.0000
    54 H6A1       -38.3230    39.7454   -96.5750 H            1 NAI332   0.0000
    55 H6A2       -36.9148    40.2098   -97.4703 H            1 NAI332   0.0000
    56 H2A        -36.8521    36.7648   -93.5283 H            1 NAI332   0.0000
    57 H5D1       -26.9874    39.6957   -90.1549 H            1 NAI332   0.0000
    58 H5D2       -27.6135    39.7696   -91.6612 H            1 NAI332   0.0000
    59 H4D        -28.1482    41.8548   -90.8723 H            1 NAI332   0.0000
    60 H3D        -26.2468    41.9098   -92.7398 H            1 NAI332   0.0000
    61 H17        -28.1781    43.2527   -92.4235 H            1 NAI332   0.0000
    62 H2D        -24.3970    42.3569   -91.3314 H            1 NAI332   0.0000
    63 H19        -25.8033    44.7268   -91.9595 H            1 NAI332   0.0000
    64 H1D        -26.1626    43.9478   -89.7395 H            1 NAI332   0.0000
    65 H2N        -25.7008    44.3888   -87.7701 H            1 NAI332   0.0000
    66 H7N1       -25.8445    45.8118   -84.8602 H            1 NAI332   0.0000
    67 H7N2       -26.2483    44.8429   -86.2380 H            1 NAI332   0.0000
    68 H4N1       -22.8272    42.5296   -85.9365 H            1 NAI332   0.0000
    69 H4N2       -22.0565    43.7658   -86.6745 H            1 NAI332   0.0000
    70 H5N        -21.7286    41.7475   -87.8926 H            1 NAI332   0.0000
    71 H6N        -23.3369    41.6794   -89.6911 H            1 NAI332   0.0000
@<TRIPOS>BOND
     1    1    2      ar
     2    1    3      ar
     3    1    4       1
     4    1   23       1
     5    4    5       1
     6    5    6       1
     7    6    7       1
     8    6    8       1
     9    7   12       1
    10    8    9       1
    11    8   10       1
    12   10   11       1
    13   10   12       1
    14   12   13       1
    15   13   14       1
    16   13   22       1
    17   14   15       2
    18   15   16       1
    19   16   17      ar
    20   16   22      ar
    21   17   18       1
    22   17   19      ar
    23   19   20      ar
    24   20   21      ar
    25   21   22      ar
    26   23   24       1
    27   24   25      ar
    28   24   26      ar
    29   24   27       1
    30   27   28       1
    31   28   29       1
    32   29   30       1
    33   29   31       1
    34   30   35       1
    35   31   32       1
    36   31   33       1
    37   33   34       1
    38   33   35       1
    39   35   36       1
    40   36   37       1
    41   36   44       1
    42   37   38       2
    43   38   39       1
    44   38   42       1
    45   39   40       2
    46   39   41      am
    47   42   43       1
    48   43   44       2
    49   44   71       1
    50    5   45       1
    51    5   46       1
    52    6   47       1
    53    8   48       1
    54    9   49       1
    55   10   50       1
    56   11   51       1
    57   12   52       1
    58   14   53       1
    59   18   54       1
    60   18   55       1
    61   20   56       1
    62   43   70       1
    63   28   57       1
    64   28   58       1
    65   29   59       1
    66   31   60       1
    67   32   61       1
    68   33   62       1
    69   34   63       1
    70   35   64       1
    71   37   65       1
    72   41   66       1
    73   41   67       1
    74   42   68       1
    75   42   69       1
@<TRIPOS>SUBSTRUCTURE
     1 NAI332      1 GROUP             4 H     NAI     0 **** NAI H 332
