@<TRIPOS>MOLECULE
4er7_AW3_1_ligand
   72    75     1     0     0
SMALL
NO_CHARGES


@<TRIPOS>ATOM
     1 N1          15.0940    60.1570   -10.0080 N.ar         1 AW3501   0.0000
     2 C2          16.3400    59.5360    -9.7880 C.ar         1 AW3501   0.0000
     3 N3          17.4500    60.3400    -9.6390 N.ar         1 AW3501   0.0000
     4 C4          17.3170    61.6690    -9.6930 C.ar         1 AW3501   0.0000
     5 C5          16.1250    62.2480    -9.8990 C.ar         1 AW3501   0.0000
     6 C6          15.0390    61.5020   -10.0640 C.ar         1 AW3501   0.0000
     7 BRH         15.0070    64.9470   -10.1130 Br           1 AW3501   0.0000
     8 CAA         22.9580    66.5350     4.5390 C.3          1 AW3501   0.0000
     9 CAB         20.5150    66.5100     3.9480 C.3          1 AW3501   0.0000
    10 CAC         21.5810    64.6400     5.2060 C.3          1 AW3501   0.0000
    11 NAD         13.9050    62.1550   -10.2690 N.pl3        1 AW3501   0.0000
    12 OAE         24.2420    63.9470    -1.6020 O.2          1 AW3501   0.0000
    13 OAF         22.6600    62.1100    -9.8870 O.3          1 AW3501   0.0000
    14 OAG         20.6670    62.4830   -11.5200 O.3          1 AW3501   0.0000
    15 CAJ         23.5660    64.1820     1.1000 C.ar         1 AW3501   0.0000
    16 CAK         21.2890    63.4360     1.1680 C.ar         1 AW3501   0.0000
    17 CAL         23.3490    64.9270     2.2690 C.ar         1 AW3501   0.0000
    18 CAM         21.0690    64.1710     2.3240 C.ar         1 AW3501   0.0000
    19 CAN         17.6050    63.8170    -9.6860 C.2          1 AW3501   0.0000
    20 CAO         24.3200    63.6100    -4.4680 C.3          1 AW3501   0.0000
    21 CAP         22.9020    64.1210    -4.7460 C.3          1 AW3501   0.0000
    22 CAQ         24.3140    62.1940    -3.8160 C.3          1 AW3501   0.0000
    23 CAR         21.9950    64.1140    -7.0670 C.3          1 AW3501   0.0000
    24 NAU         22.2890    63.3610    -5.8250 N.4          1 AW3501   1.0000
    25 NAV         23.4650    62.1000    -2.6250 N.am         1 AW3501   0.0000
    26 NAW         22.6360    62.6740    -0.5860 N.am         1 AW3501   0.0000
    27 OAX         19.9900    63.0910    -8.0720 O.3          1 AW3501   0.0000
    28 CAY         23.4920    62.9630    -1.6000 C.2          1 AW3501   0.0000
    29 CBA         22.5290    63.4320     0.5290 C.ar         1 AW3501   0.0000
    30 CBB         16.3250    63.5670    -9.8830 C.2          1 AW3501   0.0000
    31 CBC         22.0890    64.9340     2.8970 C.ar         1 AW3501   0.0000
    32 CBF         21.8770    63.2560    -9.5100 C.3          1 AW3501   0.0000
    33 CBG         20.5560    63.2270   -10.2850 C.3          1 AW3501   0.0000
    34 CBH         21.4350    63.0630    -8.0590 C.3          1 AW3501   0.0000
    35 CBI         19.6590    62.4660    -9.3140 C.3          1 AW3501   0.0000
    36 NBJ         18.2200    62.6400    -9.5710 N.pl3        1 AW3501   0.0000
    37 CBK         21.8130    65.6460     4.0990 C.3          1 AW3501   0.0000
    38 H1          16.4168    58.5400    -9.7413 H            1 AW3501   0.0000
    39 HAA1        23.7880    65.9858     4.6362 H            1 AW3501   0.0000
    40 HAA2        23.1084    67.2482     3.8543 H            1 AW3501   0.0000
    41 HAA3        22.7334    66.9578     5.4169 H            1 AW3501   0.0000
    42 HAB1        19.7574    65.9255     3.6576 H            1 AW3501   0.0000
    43 HAB2        20.2920    66.9329     4.8263 H            1 AW3501   0.0000
    44 HAB3        20.6670    67.2232     3.2637 H            1 AW3501   0.0000
    45 HAC1        20.8289    64.0320     4.9517 H            1 AW3501   0.0000
    46 HAC2        22.4118    64.1016     5.3466 H            1 AW3501   0.0000
    47 HAC3        21.3490    65.1218     6.0510 H            1 AW3501   0.0000
    48 HAD1        13.9029    63.1544   -10.3044 H            1 AW3501   0.0000
    49 HAD2        13.0510    61.6486   -10.3884 H            1 AW3501   0.0000
    50 HAF         22.1560    61.2749    -9.6668 H            1 AW3501   0.0000
    51 HAG         20.9308    61.5397   -11.3183 H            1 AW3501   0.0000
    52 HAJ         24.4690    64.1863     0.6703 H            1 AW3501   0.0000
    53 HAK         20.5404    62.8959     0.7835 H            1 AW3501   0.0000
    54 HAL         24.0989    65.4598     2.6611 H            1 AW3501   0.0000
    55 HAM         20.1661    64.1542     2.7536 H            1 AW3501   0.0000
    56 HAN         18.0332    64.7191    -9.6329 H            1 AW3501   0.0000
    57 HAO1        24.7775    64.2484    -3.8490 H            1 AW3501   0.0000
    58 HAO2        24.8221    63.5655    -5.3317 H            1 AW3501   0.0000
    59 HAP1        22.9449    65.0857    -5.0060 H            1 AW3501   0.0000
    60 HAP2        22.3488    64.0230    -3.9188 H            1 AW3501   0.0000
    61 HAQ1        25.2511    61.9620    -3.5553 H            1 AW3501   0.0000
    62 HAQ2        23.9836    61.5359    -4.4925 H            1 AW3501   0.0000
    63 HAR1        22.8288    64.5295    -7.4305 H            1 AW3501   0.0000
    64 HAR2        21.3162    64.8271    -6.8920 H            1 AW3501   0.0000
    65 HAU1        21.4270    62.9863    -5.4835 H            1 AW3501   0.0000
    66 HAV         22.8197    61.3378    -2.5735 H            1 AW3501   0.0000
    67 HAW         22.0575    61.8624    -0.6676 H            1 AW3501   0.0000
    68 HBF         22.3741    64.1135    -9.6427 H            1 AW3501   0.0000
    69 HBG         20.2113    64.1514   -10.4484 H            1 AW3501   0.0000
    70 HBH         21.7300    62.1563    -7.7575 H            1 AW3501   0.0000
    71 HBI         19.9001    61.4957    -9.2966 H            1 AW3501   0.0000
    72 HAU2        22.9079    62.6118    -6.0611 H            1 AW3501   0.0000
@<TRIPOS>BOND
     1    1    2      ar
     2    1    6      ar
     3    2    3      ar
     4    3    4      ar
     5    4    5      ar
     6    4   36       1
     7    5    6      ar
     8    5   30       1
     9    6   11       1
    10    7   30       1
    11    8   37       1
    12    9   37       1
    13   10   37       1
    14   12   28       2
    15   13   32       1
    16   14   33       1
    17   15   17      ar
    18   15   29      ar
    19   16   18      ar
    20   16   29      ar
    21   17   31      ar
    22   18   31      ar
    23   19   30       2
    24   19   36       1
    25   20   21       1
    26   20   22       1
    27   21   24       1
    28   22   25       1
    29   23   24       1
    30   23   34       1
    31   25   28      am
    32   26   28      am
    33   26   29       1
    34   27   34       1
    35   27   35       1
    36   31   37       1
    37   32   33       1
    38   32   34       1
    39   33   35       1
    40   35   36       1
    41    2   38       1
    42    8   39       1
    43    8   40       1
    44    8   41       1
    45    9   42       1
    46    9   43       1
    47    9   44       1
    48   10   45       1
    49   10   46       1
    50   10   47       1
    51   11   48       1
    52   11   49       1
    53   13   50       1
    54   14   51       1
    55   15   52       1
    56   16   53       1
    57   17   54       1
    58   18   55       1
    59   19   56       1
    60   20   57       1
    61   20   58       1
    62   21   59       1
    63   21   60       1
    64   22   61       1
    65   22   62       1
    66   23   63       1
    67   23   64       1
    68   24   65       1
    69   25   66       1
    70   26   67       1
    71   32   68       1
    72   33   69       1
    73   34   70       1
    74   35   71       1
    75   24   72       1
@<TRIPOS>SUBSTRUCTURE
     1 AW3501      1 GROUP             4 A     AW3     0 **** AW3 A 501
