@<TRIPOS>MOLECULE
2oyf_IAC_1_ligand
   21    22     1     0     0
SMALL
NO_CHARGES


@<TRIPOS>ATOM
     1 C          -19.8710     4.0330    -8.4480 C.ar         1 IAC1001   0.0000
     2 C1         -21.1170     4.8460    -8.4910 C.ar         1 IAC1001   0.0000
     3 C2         -21.7940     5.1160    -7.2990 C.ar         1 IAC1001   0.0000
     4 C3         -21.2750     4.6170    -6.0970 C.ar         1 IAC1001   0.0000
     5 C4         -20.0990     3.8570    -6.0640 C.ar         1 IAC1001   0.0000
     6 C5         -19.4000     3.5640    -7.2310 C.ar         1 IAC1001   0.0000
     7 C7         -21.3090     5.1910    -9.9380 C.2          1 IAC1001   0.0000
     8 C8         -20.1550     4.5270   -10.5870 C.2          1 IAC1001   0.0000
     9 C17        -22.4900     5.8400   -10.6190 C.3          1 IAC1001   0.0000
    10 C18        -22.3950     7.2850   -11.0340 C.2          1 IAC1001   0.0000
    11 N          -19.3850     3.8980    -9.6880 N.pl3        1 IAC1001   0.0000
    12 O2         -23.3900     8.0230   -10.8500 O.co2        1 IAC1001   0.0000
    13 O3         -21.3480     7.6750   -11.5960 O.co2        1 IAC1001  -1.0000
    14 H1         -22.6353     5.6566    -7.3037 H            1 IAC1001   0.0000
    15 H2         -21.7562     4.8082    -5.2415 H            1 IAC1001   0.0000
    16 H3         -19.7561     3.5194    -5.1874 H            1 IAC1001   0.0000
    17 H4         -18.5629     3.0184    -7.1922 H            1 IAC1001   0.0000
    18 H5         -19.9735     4.5456   -11.5702 H            1 IAC1001   0.0000
    19 H6         -23.2657     5.7662    -9.9922 H            1 IAC1001   0.0000
    20 H7         -22.6781     5.3101   -11.4459 H            1 IAC1001   0.0000
    21 H8         -18.5529     3.3920    -9.9149 H            1 IAC1001   0.0000
@<TRIPOS>BOND
     1    1    2      ar
     2    1    6      ar
     3    1   11       1
     4    2    3      ar
     5    2    7       1
     6    3    4      ar
     7    4    5      ar
     8    5    6      ar
     9    7    8       2
    10    7    9       1
    11    8   11       1
    12    9   10       1
    13   10   12      ar
    14   10   13      ar
    15    3   14       1
    16    4   15       1
    17    5   16       1
    18    6   17       1
    19    8   18       1
    20    9   19       1
    21    9   20       1
    22   11   21       1
@<TRIPOS>SUBSTRUCTURE
     1 IAC1001     1 GROUP             4 A     IAC     0 **** IAC A1001
