@<TRIPOS>MOLECULE
3tr9_PT1_1_ligand
   35    37     1     0     0
SMALL
NO_CHARGES


@<TRIPOS>ATOM
     1 C2          -5.0110    -3.0550    -1.9070 C.2          1 PT11001   0.0000
     2 C3          -6.0720    -2.4910    -1.2030 C.ar         1 PT11001   0.0000
     3 C5          -5.8100    -1.3930    -0.3940 C.ar         1 PT11001   0.0000
     4 N6          -7.3280    -2.9660    -1.2970 N.ar         1 PT11001   0.0000
     5 C7          -3.5620    -1.5090    -1.0000 C.2          1 PT11001   0.0000
     6 N9          -4.5500    -0.9450    -0.3130 N.2          1 PT11001   0.0000
     7 C10         -8.3230    -2.3890    -0.5990 C.ar         1 PT11001   0.0000
     8 N11         -2.2240    -0.9790    -0.8850 N.pl3        1 PT11001   0.0000
     9 C12         -8.0590    -1.2850     0.2160 C.ar         1 PT11001   0.0000
    10 C21        -13.1080    -6.5650    -5.0700 C.2          1 PT11001   0.0000
    11 O22        -13.0360    -6.6300    -6.2670 O.co2        1 PT11001   0.0000
    12 O1          -5.2230    -4.1560    -2.7420 O.2          1 PT11001   0.0000
    13 N4          -3.7680    -2.5610    -1.7950 N.pl3        1 PT11001   0.0000
    14 N8          -6.8080    -0.8170     0.3080 N.ar         1 PT11001   1.0000
    15 C13         -9.6920    -2.9260    -0.7490 C.3          1 PT11001   0.0000
    16 N14        -10.2560    -2.5430    -2.0400 N.pl3        1 PT11001   0.0000
    17 C15        -11.0190    -3.5900    -2.8910 C.ar         1 PT11001   0.0000
    18 C16        -11.7140    -4.5870    -2.2180 C.ar         1 PT11001   0.0000
    19 C17        -10.9990    -3.5410    -4.2730 C.ar         1 PT11001   0.0000
    20 C18        -12.3970    -5.5410    -2.9340 C.ar         1 PT11001   0.0000
    21 C19        -11.6880    -4.5100    -4.9910 C.ar         1 PT11001   0.0000
    22 C20        -12.3840    -5.4960    -4.3190 C.ar         1 PT11001   0.0000
    23 O23        -13.7730    -7.4400    -4.3900 O.co2        1 PT11001  -1.0000
    24 H1          -1.4747    -1.3973    -1.3984 H            1 PT11001   0.0000
    25 H2          -2.0466    -0.1936    -0.2920 H            1 PT11001   0.0000
    26 H3          -8.7991    -0.8477     0.7268 H            1 PT11001   0.0000
    27 H4         -10.2693    -2.5631    -0.0175 H            1 PT11001   0.0000
    28 H5          -9.6623    -3.9236    -0.6863 H            1 PT11001   0.0000
    29 H6         -10.1502    -1.6066    -2.3747 H            1 PT11001   0.0000
    30 H7         -11.7174    -4.6105    -1.2183 H            1 PT11001   0.0000
    31 H8         -10.4961    -2.8189    -4.7481 H            1 PT11001   0.0000
    32 H9         -12.9000    -6.2628    -2.4586 H            1 PT11001   0.0000
    33 H10        -11.6802    -4.4939    -5.9908 H            1 PT11001   0.0000
    34 H11         -3.0093    -2.9741    -2.2986 H            1 PT11001   0.0000
    35 H12         -6.6120    -0.0357     0.9006 H            1 PT11001   0.0000
@<TRIPOS>BOND
     1    1    2       1
     2    1   12       2
     3    1   13       1
     4    2    3      ar
     5    2    4      ar
     6    3    6       1
     7    3   14      ar
     8    4    7      ar
     9    5    6       2
    10    5    8       1
    11    5   13       1
    12    7    9      ar
    13    7   15       1
    14    9   14      ar
    15   10   11      ar
    16   10   22       1
    17   10   23      ar
    18   15   16       1
    19   16   17       1
    20   17   18      ar
    21   17   19      ar
    22   18   20      ar
    23   19   21      ar
    24   20   22      ar
    25   21   22      ar
    26   21   33       1
    27    8   24       1
    28    8   25       1
    29    9   26       1
    30   20   32       1
    31   15   27       1
    32   15   28       1
    33   16   29       1
    34   18   30       1
    35   19   31       1
    36   13   34       1
    37   14   35       1
@<TRIPOS>SUBSTRUCTURE
     1 PT11001     1 GROUP             4 A     PT1     0 **** PT1 A1001
