@<TRIPOS>MOLECULE
4xyb_NDP_2_ligand
   73    77     1     0     0
SMALL
NO_CHARGES


@<TRIPOS>ATOM
     1 PA          -6.9870     5.3860   -13.6810 P.3          1 NDP401   0.0000
     2 O1A         -6.8090     5.3940   -15.2240 O.co2        1 NDP401   0.0000
     3 O2A         -7.7890     6.4820   -13.0460 O.co2        1 NDP401  -1.0000
     4 O5B         -7.6480     3.9460   -13.4010 O.3          1 NDP401   0.0000
     5 C5B         -8.0670     3.5600   -12.1000 C.3          1 NDP401   0.0000
     6 C4B         -9.1080     2.4910   -12.2930 C.3          1 NDP401   0.0000
     7 O4B         -9.4860     2.0500   -11.0020 O.3          1 NDP401   0.0000
     8 C3B        -10.3870     3.0320   -12.9250 C.3          1 NDP401   0.0000
     9 O3B        -10.4460     2.6300   -14.2740 O.3          1 NDP401   0.0000
    10 C2B        -11.4580     2.3560   -12.1110 C.3          1 NDP401   0.0000
    11 O2B        -12.3400     1.5600   -12.8900 O.3          1 NDP401   0.0000
    12 C1B        -10.7350     1.4390   -11.1330 C.3          1 NDP401   0.0000
    13 N9A        -11.3370     1.3960    -9.7630 N.pl3        1 NDP401   0.0000
    14 C8A        -11.7520     2.4170    -9.0520 C.2          1 NDP401   0.0000
    15 N7A        -12.2580     2.0600    -7.8970 N.2          1 NDP401   0.0000
    16 C5A        -12.1990     0.7460    -7.8550 C.ar         1 NDP401   0.0000
    17 C6A        -12.5540    -0.3040    -6.9140 C.ar         1 NDP401   0.0000
    18 N6A        -13.1360     0.0160    -5.7770 N.pl3        1 NDP401   0.0000
    19 N1A        -12.2620    -1.5210    -7.2620 N.ar         1 NDP401   0.0000
    20 C2A        -11.6920    -1.8330    -8.3780 C.ar         1 NDP401   0.0000
    21 N3A        -11.3200    -0.9420    -9.3420 N.ar         1 NDP401   0.0000
    22 C4A        -11.5520     0.3190    -9.0600 C.ar         1 NDP401   0.0000
    23 O3          -5.5800     5.4300   -12.9330 O.3          1 NDP401   0.0000
    24 PN          -4.1450     4.8320   -13.4060 P.3          1 NDP401   0.0000
    25 O1N         -4.4280     3.4490   -14.0150 O.co2        1 NDP401   0.0000
    26 O2N         -3.3860     5.8270   -14.1760 O.co2        1 NDP401  -1.0000
    27 O5D         -3.4670     4.7620   -11.9280 O.3          1 NDP401   0.0000
    28 C5D         -3.9660     3.8500   -10.9390 C.3          1 NDP401   0.0000
    29 C4D         -3.2240     4.0760    -9.6280 C.3          1 NDP401   0.0000
    30 O4D         -1.8820     3.6320    -9.7260 O.3          1 NDP401   0.0000
    31 C3D         -3.1500     5.5860    -9.2860 C.3          1 NDP401   0.0000
    32 O3D         -4.3590     6.0800    -8.6970 O.3          1 NDP401   0.0000
    33 C2D         -1.9780     5.5890    -8.3460 C.3          1 NDP401   0.0000
    34 O2D         -2.3900     5.3090    -6.9920 O.3          1 NDP401   0.0000
    35 C1D         -1.1220     4.3970    -8.8080 C.3          1 NDP401   0.0000
    36 N1N          0.1240     4.8240    -9.4780 N.ar         1 NDP401   1.0000
    37 C2N          1.3100     4.4180    -9.0100 C.ar         1 NDP401   0.0000
    38 C3N          2.5140     4.8160    -9.4970 C.ar         1 NDP401   0.0000
    39 C7N          3.8480     4.3450    -9.0170 C.2          1 NDP401   0.0000
    40 O7N          4.8030     5.0230    -9.1310 O.2          1 NDP401   0.0000
    41 N7N          3.8920     3.1320    -8.4770 N.am         1 NDP401   0.0000
    42 C4N          2.5490     5.8000   -10.5900 C.ar         1 NDP401   0.0000
    43 C5N          1.2310     6.1570   -11.0180 C.ar         1 NDP401   0.0000
    44 C6N          0.0630     5.6960   -10.4740 C.ar         1 NDP401   0.0000
    45 P2B        -13.9320     1.3180   -12.4470 P.3          1 NDP401   0.0000
    46 O1X        -14.5260     2.6820   -12.4790 O.co2        1 NDP401   0.0000
    47 O2X        -13.9470     0.7640   -11.0800 O.co2        1 NDP401  -1.0000
    48 O3X        -14.5100     0.3910   -13.5180 O.co2        1 NDP401  -1.0000
    49 H5B1        -8.4592     4.3422   -11.6160 H            1 NDP401   0.0000
    50 H5B2        -7.2929     3.1998   -11.5793 H            1 NDP401   0.0000
    51 H4B         -8.7406     1.7330   -12.8320 H            1 NDP401   0.0000
    52 H3B        -10.4407     4.0270   -12.8403 H            1 NDP401   0.0000
    53 H5         -10.4441     1.6313   -14.3246 H            1 NDP401   0.0000
    54 H2B        -11.9809     3.0424   -11.6057 H            1 NDP401   0.0000
    55 H1B        -10.6428     0.5176   -11.5105 H            1 NDP401   0.0000
    56 H8A        -11.6890     3.3668    -9.3586 H            1 NDP401   0.0000
    57 H6A1       -13.3839    -0.6992    -5.1235 H            1 NDP401   0.0000
    58 H6A2       -13.3301     0.9742    -5.5670 H            1 NDP401   0.0000
    59 H2A        -11.5094    -2.8013    -8.5486 H            1 NDP401   0.0000
    60 H5D1        -3.8207     2.9100   -11.2476 H            1 NDP401   0.0000
    61 H5D2        -4.9437     4.0083   -10.8013 H            1 NDP401   0.0000
    62 H4D         -3.6877     3.5859    -8.8899 H            1 NDP401   0.0000
    63 H3D         -2.9304     6.1121   -10.1076 H            1 NDP401   0.0000
    64 H16         -4.4752     7.0446    -8.9338 H            1 NDP401   0.0000
    65 H2D         -1.4681     6.4474    -8.4018 H            1 NDP401   0.0000
    66 H18         -3.0407     6.0060    -6.6907 H            1 NDP401   0.0000
    67 H1D         -0.8929     3.8298    -8.0169 H            1 NDP401   0.0000
    68 H2N          1.3100     3.7739    -8.2451 H            1 NDP401   0.0000
    69 H7N1         4.7592     2.7663    -8.1389 H            1 NDP401   0.0000
    70 H7N2         3.0579     2.5846    -8.4086 H            1 NDP401   0.0000
    71 H4N          3.3888     6.1728   -10.9846 H            1 NDP401   0.0000
    72 H5N          1.1570     6.7992   -11.7810 H            1 NDP401   0.0000
    73 H6N         -0.8201     6.0113   -10.8216 H            1 NDP401   0.0000
@<TRIPOS>BOND
     1    1    2      ar
     2    1    3      ar
     3    1    4       1
     4    1   23       1
     5    4    5       1
     6    5    6       1
     7    6    7       1
     8    6    8       1
     9    7   12       1
    10    8    9       1
    11    8   10       1
    12   10   11       1
    13   10   12       1
    14   11   45       1
    15   12   13       1
    16   13   14       1
    17   13   22       1
    18   14   15       2
    19   15   16       1
    20   16   17      ar
    21   16   22      ar
    22   17   18       1
    23   17   19      ar
    24   19   20      ar
    25   20   21      ar
    26   21   22      ar
    27   23   24       1
    28   24   25      ar
    29   24   26      ar
    30   24   27       1
    31   27   28       1
    32   28   29       1
    33   29   30       1
    34   29   31       1
    35   30   35       1
    36   31   32       1
    37   31   33       1
    38   33   34       1
    39   33   35       1
    40   35   36       1
    41   36   37      ar
    42   36   44      ar
    43   37   38      ar
    44   38   39       1
    45   38   42      ar
    46   39   40       2
    47   39   41      am
    48   42   43      ar
    49   43   44      ar
    50   45   46      ar
    51   45   47      ar
    52   45   48      ar
    53   43   72       1
    54    5   49       1
    55    5   50       1
    56    6   51       1
    57    8   52       1
    58    9   53       1
    59   10   54       1
    60   12   55       1
    61   14   56       1
    62   18   57       1
    63   18   58       1
    64   20   59       1
    65   44   73       1
    66   28   60       1
    67   28   61       1
    68   29   62       1
    69   31   63       1
    70   32   64       1
    71   33   65       1
    72   34   66       1
    73   35   67       1
    74   37   68       1
    75   41   69       1
    76   41   70       1
    77   42   71       1
@<TRIPOS>SUBSTRUCTURE
     1 NDP401      1 GROUP             4 B     NDP     0 **** NDP B 401
