@<TRIPOS>MOLECULE
3hfw_ADP_1_ligand
   39    41     1     0     0
SMALL
NO_CHARGES


@<TRIPOS>ATOM
     1 PB          20.2480    13.6920     7.5330 P.3          1 ADP358   0.0000
     2 O1B         20.0350    12.2600     7.8550 O.co2        1 ADP358   0.0000
     3 O2B         21.3540    13.8400     6.4570 O.co2        1 ADP358  -1.0000
     4 O3B         20.4390    14.5010     8.7900 O.co2        1 ADP358  -1.0000
     5 PA          17.7390    12.8010     7.2490 P.3          1 ADP358   0.0000
     6 O1A         16.8000    12.4960     6.1160 O.co2        1 ADP358   0.0000
     7 O2A         18.1870    11.5220     7.9500 O.co2        1 ADP358  -1.0000
     8 O3A         18.7930    14.0070     6.8720 O.3          1 ADP358   0.0000
     9 O5'         17.0620    13.6000     8.4830 O.3          1 ADP358   0.0000
    10 C5'         15.7330    13.2340     8.6990 C.3          1 ADP358   0.0000
    11 C4'         15.3470    13.7720    10.0310 C.3          1 ADP358   0.0000
    12 O4'         15.6560    15.1710    10.1210 O.3          1 ADP358   0.0000
    13 C3'         13.8430    13.6060    10.1430 C.3          1 ADP358   0.0000
    14 O3'         13.5550    12.5130    11.0170 O.3          1 ADP358   0.0000
    15 C2'         13.3960    14.9170    10.7570 C.3          1 ADP358   0.0000
    16 O2'         12.8020    14.6540    12.0200 O.3          1 ADP358   0.0000
    17 C1'         14.6880    15.6970    10.9910 C.3          1 ADP358   0.0000
    18 N9          14.4770    17.1020    10.7140 N.pl3        1 ADP358   0.0000
    19 C8          14.2220    17.6790     9.5180 C.2          1 ADP358   0.0000
    20 N7          14.0890    19.0150     9.6800 N.2          1 ADP358   0.0000
    21 C5          14.2590    19.2770    10.9880 C.ar         1 ADP358   0.0000
    22 C6          14.2460    20.4600    11.8580 C.ar         1 ADP358   0.0000
    23 N6          13.9960    21.7040    11.3970 N.pl3        1 ADP358   0.0000
    24 N1          14.4720    20.2610    13.1510 N.ar         1 ADP358   0.0000
    25 C2          14.7020    19.0430    13.7030 C.ar         1 ADP358   0.0000
    26 N3          14.7380    17.9310    12.9750 N.ar         1 ADP358   0.0000
    27 C4          14.5160    17.9980    11.6590 C.ar         1 ADP358   0.0000
    28 H5'1        15.6453    12.2379     8.6920 H            1 ADP358   0.0000
    29 H5'2        15.1488    13.6251     7.9878 H            1 ADP358   0.0000
    30 H4'         15.8089    13.2653    10.7589 H            1 ADP358   0.0000
    31 H3'         13.4273    13.4683     9.2440 H            1 ADP358   0.0000
    32 H5          14.2823    12.4305    11.6984 H            1 ADP358   0.0000
    33 H2'         12.7717    15.4122    10.1528 H            1 ADP358   0.0000
    34 H7          11.8211    14.4997    11.9014 H            1 ADP358   0.0000
    35 H1'         14.9862    15.5805    11.9384 H            1 ADP358   0.0000
    36 H9          14.1438    17.1927     8.6477 H            1 ADP358   0.0000
    37 H10         13.9976    22.4805    12.0272 H            1 ADP358   0.0000
    38 H11         13.8092    21.8490    10.4254 H            1 ADP358   0.0000
    39 H12         14.8493    18.9796    14.6901 H            1 ADP358   0.0000
@<TRIPOS>BOND
     1    1    2      ar
     2    1    3      ar
     3    1    4      ar
     4    1    8       1
     5    5    6      ar
     6    5    7      ar
     7    5    8       1
     8    5    9       1
     9    9   10       1
    10   10   11       1
    11   11   12       1
    12   11   13       1
    13   12   17       1
    14   13   14       1
    15   13   15       1
    16   15   16       1
    17   15   17       1
    18   17   18       1
    19   18   19       1
    20   18   27       1
    21   19   20       2
    22   20   21       1
    23   21   22      ar
    24   21   27      ar
    25   22   23       1
    26   22   24      ar
    27   24   25      ar
    28   25   26      ar
    29   26   27      ar
    30   25   39       1
    31   23   38       1
    32   23   37       1
    33   10   28       1
    34   10   29       1
    35   11   30       1
    36   13   31       1
    37   14   32       1
    38   15   33       1
    39   16   34       1
    40   17   35       1
    41   19   36       1
@<TRIPOS>SUBSTRUCTURE
     1 ADP358      1 GROUP             4 A     ADP     0 **** ADP A 358
