@<TRIPOS>MOLECULE
3mtw_M3R_1_ligand
   32    31     1     0     0
SMALL
NO_CHARGES


@<TRIPOS>ATOM
     1 CP          26.8330   115.0640     9.5040 C.3          1 M3R430   0.0000
     2 P           27.7320   116.5770     9.2810 P.3          1 M3R430   0.0000
     3 OPA         28.1990   117.1880    10.6490 O.co2        1 M3R430   0.0000
     4 OPB         26.8770   117.6000     8.6010 O.co2        1 M3R430  -1.0000
     5 N           29.1240   116.4370     8.4560 N.3          1 M3R430   0.0000
     6 CA          29.7760   117.6810     7.9090 C.3          1 M3R430   0.0000
     7 C           29.5640   117.7860     6.4100 C.2          1 M3R430   0.0000
     8 OXT         29.5870   116.7750     5.7160 O.co2        1 M3R430   0.0000
     9 CB          31.2730   117.7990     8.2400 C.3          1 M3R430   0.0000
    10 CG          31.9310   119.1310     7.8890 C.3          1 M3R430   0.0000
    11 CD          33.3250   118.5610     7.8140 C.3          1 M3R430   0.0000
    12 NE          34.3380   119.6160     7.6730 N.pl3        1 M3R430   1.0000
    13 CZ          34.9490   120.7240     8.0870 C.cat        1 M3R430   0.0000
    14 NH2         34.5240   121.2910     9.2010 N.pl3        1 M3R430   0.0000
    15 NH1         35.9830   121.2500     7.4280 N.pl3        1 M3R430   0.0000
    16 O           29.3340   118.8510     5.8730 O.co2        1 M3R430  -1.0000
    17 HP1         26.5539   114.7076     8.6123 H            1 M3R430   0.0000
    18 HP2         27.4166   114.3941     9.9630 H            1 M3R430   0.0000
    19 HP3         26.0218   115.2375    10.0624 H            1 M3R430   0.0000
    20 H4          28.9449   115.8338     7.6788 H            1 M3R430   0.0000
    21 HA          29.3174   118.4644     8.3284 H            1 M3R430   0.0000
    22 HB1         31.7547   117.0785     7.7411 H            1 M3R430   0.0000
    23 HB2         31.3817   117.6534     9.2234 H            1 M3R430   0.0000
    24 HG1         31.8277   119.8198     8.6065 H            1 M3R430   0.0000
    25 HG2         31.6142   119.5067     7.0181 H            1 M3R430   0.0000
    26 HD1         33.3827   117.9491     7.0252 H            1 M3R430   0.0000
    27 HD2         33.5093   118.0448     8.6504 H            1 M3R430   0.0000
    28 HE          34.8167   119.3786     6.8277 H            1 M3R430   0.0000
    29 HH21        34.9632   122.1242     9.5371 H            1 M3R430   0.0000
    30 HH22        33.7629   120.8873     9.7087 H            1 M3R430   0.0000
    31 HH11        36.4196   122.0837     7.7661 H            1 M3R430   0.0000
    32 HH12        36.3214   120.8105     6.5959 H            1 M3R430   0.0000
@<TRIPOS>BOND
     1    1    2       1
     2    2    3      ar
     3    2    4      ar
     4    2    5       1
     5    5    6       1
     6    6    7       1
     7    6    9       1
     8    7    8      ar
     9    7   16      ar
    10    9   10       1
    11   10   11       1
    12   11   12       1
    13   12   13      ar
    14   13   14      ar
    15   13   15      ar
    16    1   17       1
    17    1   18       1
    18    1   19       1
    19   15   31       1
    20    5   20       1
    21    6   21       1
    22   14   30       1
    23    9   22       1
    24    9   23       1
    25   10   24       1
    26   10   25       1
    27   11   26       1
    28   11   27       1
    29   12   28       1
    30   14   29       1
    31   15   32       1
@<TRIPOS>SUBSTRUCTURE
     1 M3R430      1 GROUP             4 A     M3R     0 **** M3R A 430
