@<TRIPOS>MOLECULE
3nie_ANP_1_ligand
   44    46     1     0     0
SMALL
NO_CHARGES


@<TRIPOS>ATOM
     1 PG           6.2620    11.4160    12.9850 P.3          1 ANP430   0.0000
     2 O1G          6.8980    11.5270    14.3520 O.co2        1 ANP430   0.0000
     3 O2G          4.8900    11.9830    12.9340 O.co2        1 ANP430  -1.0000
     4 O3G          7.1750    11.7090    11.8290 O.co2        1 ANP430  -1.0000
     5 PB           4.8310     8.8740    13.7110 P.3          1 ANP430   0.0000
     6 O1B          4.2220     7.7120    13.0030 O.co2        1 ANP430   0.0000
     7 O2B          3.8050     9.8190    14.3230 O.co2        1 ANP430  -1.0000
     8 N3B          6.0060     9.6970    12.7470 N.3          1 ANP430   0.0000
     9 PA           7.1940     8.0960    15.0530 P.3          1 ANP430   0.0000
    10 O1A          7.8000     9.4200    14.7710 O.co2        1 ANP430   0.0000
    11 O2A          7.6610     6.8340    14.3350 O.co2        1 ANP430  -1.0000
    12 O3A          5.6110     8.2370    14.9600 O.3          1 ANP430   0.0000
    13 O5'          7.2450     7.8110    16.6360 O.3          1 ANP430   0.0000
    14 C5'          6.7560     8.7870    17.5640 C.3          1 ANP430   0.0000
    15 C4'          7.4470     8.6760    18.9100 C.3          1 ANP430   0.0000
    16 O4'          7.1560     7.4230    19.5450 O.3          1 ANP430   0.0000
    17 C3'          8.9590     8.7170    18.8620 C.3          1 ANP430   0.0000
    18 O3'          9.4660    10.0420    18.7660 O.3          1 ANP430   0.0000
    19 C2'          9.3380     8.0120    20.1450 C.3          1 ANP430   0.0000
    20 O2'          9.2220     8.8850    21.2800 O.3          1 ANP430   0.0000
    21 C1'          8.2980     6.9160    20.2250 C.3          1 ANP430   0.0000
    22 N9           8.7250     5.6930    19.5080 N.pl3        1 ANP430   0.0000
    23 C8           8.5110     5.3920    18.2130 C.2          1 ANP430   0.0000
    24 N7           9.0390     4.1830    17.8850 N.2          1 ANP430   0.0000
    25 C5           9.5860     3.6790    18.9890 C.ar         1 ANP430   0.0000
    26 C6          10.3200     2.4470    19.3640 C.ar         1 ANP430   0.0000
    27 N6          10.5990     1.4530    18.5110 N.pl3        1 ANP430   0.0000
    28 N1          10.7070     2.3360    20.6240 N.ar         1 ANP430   0.0000
    29 C2          10.4830     3.3040    21.5470 C.ar         1 ANP430   0.0000
    30 N3           9.8370     4.4420    21.2780 N.ar         1 ANP430   0.0000
    31 C4           9.3770     4.6830    20.0460 C.ar         1 ANP430   0.0000
    32 H3B          6.8838     9.2463    12.9095 H            1 ANP430   0.0000
    33 H5'1         5.7737     8.6495    17.6915 H            1 ANP430   0.0000
    34 H5'2         6.9190     9.7001    17.1902 H            1 ANP430   0.0000
    35 H4'          7.1242     9.4170    19.4988 H            1 ANP430   0.0000
    36 H3'          9.2809     8.1812    18.0814 H            1 ANP430   0.0000
    37 H6          10.3331    10.0318    18.2680 H            1 ANP430   0.0000
    38 H2'         10.2589     7.6271    20.0828 H            1 ANP430   0.0000
    39 H8          10.1129     8.9723    21.7258 H            1 ANP430   0.0000
    40 H1'          8.0776     6.7076    21.1779 H            1 ANP430   0.0000
    41 H10          8.0238     5.9847    17.5717 H            1 ANP430   0.0000
    42 H11         11.0987     0.6471    18.8285 H            1 ANP430   0.0000
    43 H12         10.3076     1.5167    17.5565 H            1 ANP430   0.0000
    44 H13         10.8189     3.1583    22.4776 H            1 ANP430   0.0000
@<TRIPOS>BOND
     1    1    2      ar
     2    1    3      ar
     3    1    4      ar
     4    1    8       1
     5    5    6      ar
     6    5    7      ar
     7    5    8       1
     8    5   12       1
     9    9   10      ar
    10    9   11      ar
    11    9   12       1
    12    9   13       1
    13   13   14       1
    14   14   15       1
    15   15   16       1
    16   15   17       1
    17   16   21       1
    18   17   18       1
    19   17   19       1
    20   19   20       1
    21   19   21       1
    22   21   22       1
    23   22   23       1
    24   22   31       1
    25   23   24       2
    26   24   25       1
    27   25   26      ar
    28   25   31      ar
    29   26   27       1
    30   26   28      ar
    31   28   29      ar
    32   29   30      ar
    33   30   31      ar
    34   29   44       1
    35   27   43       1
    36   27   42       1
    37    8   32       1
    38   23   41       1
    39   14   33       1
    40   14   34       1
    41   15   35       1
    42   17   36       1
    43   18   37       1
    44   19   38       1
    45   20   39       1
    46   21   40       1
@<TRIPOS>SUBSTRUCTURE
     1 ANP430      1 GROUP             4 A     ANP     0 **** ANP A 430
