@<TRIPOS>MOLECULE
1c9k_5GP_2_ligand
   36    39     1     0     0
SMALL
NO_CHARGES


@<TRIPOS>ATOM
     1 P           11.8940    35.8160    16.8830 P.3          1 5GP605   0.0000
     2 O1P         13.1900    36.3640    16.3970 O.3          1 5GP605   0.0000
     3 O2P         12.0420    34.3360    17.0280 O.2          1 5GP605   0.0000
     4 O3P         11.9430    36.9720    15.9350 O.3          1 5GP605   0.0000
     5 O5'         11.6060    36.3520    18.2350 O.3          1 5GP605   0.0000
     6 C5'         11.1050    35.4230    19.1500 C.3          1 5GP605   0.0000
     7 C4'          9.9200    36.0260    19.8380 C.3          1 5GP605   0.0000
     8 O4'          8.8250    36.3500    18.9660 O.3          1 5GP605   0.0000
     9 C3'          9.4220    35.2930    21.0530 C.3          1 5GP605   0.0000
    10 O3'          9.9350    35.9950    22.1670 O.3          1 5GP605   0.0000
    11 C2'          7.9080    35.4610    20.9530 C.3          1 5GP605   0.0000
    12 O2'          7.3370    35.9570    22.1510 O.3          1 5GP605   0.0000
    13 C1'          7.6750    36.4280    19.7680 C.3          1 5GP605   0.0000
    14 N9           6.6180    35.9080    18.9450 N.pl3        1 5GP605   0.0000
    15 C8           6.6330    34.8420    18.0890 C.2          1 5GP605   0.0000
    16 N7           5.4660    34.5840    17.5720 N.2          1 5GP605   0.0000
    17 C5           4.6230    35.5290    18.1500 C.2          1 5GP605   0.0000
    18 C6           3.2230    35.7610    17.9760 C.2          1 5GP605   0.0000
    19 O6           2.4200    35.1390    17.2620 O.2          1 5GP605   0.0000
    20 N1           2.7780    36.8330    18.7600 N.2          1 5GP605   0.0000
    21 C2           3.5940    37.5630    19.6000 C.2          1 5GP605   0.0000
    22 N2           3.0200    38.5610    20.2840 N.pl3        1 5GP605   0.0000
    23 N3           4.8920    37.3580    19.7600 N.pl3        1 5GP605   0.0000
    24 C4           5.3320    36.3350    19.0090 C.2          1 5GP605   0.0000
    25 H5'1        11.8091    35.2000    19.8241 H            1 5GP605   0.0000
    26 H5'2        10.8286    34.5910    18.6690 H            1 5GP605   0.0000
    27 H4'         10.2435    36.9069    20.1834 H            1 5GP605   0.0000
    28 H3'          9.6964    34.3314    21.0532 H            1 5GP605   0.0000
    29 H5           9.1777    36.3255    22.7303 H            1 5GP605   0.0000
    30 H2'          7.4954    34.5760    20.7374 H            1 5GP605   0.0000
    31 H7           7.3210    36.9565    22.1238 H            1 5GP605   0.0000
    32 H1'          7.4906    37.3621    20.0737 H            1 5GP605   0.0000
    33 H9           7.4565    34.3141    17.8811 H            1 5GP605   0.0000
    34 H10          3.5676    39.1204    20.9063 H            1 5GP605   0.0000
    35 H11          2.0438    38.7469    20.1725 H            1 5GP605   0.0000
    36 H12          5.4744    37.8992    20.3665 H            1 5GP605   0.0000
@<TRIPOS>BOND
     1    1    2       1
     2    1    3       2
     3    1    4       1
     4    1    5       1
     5    2    4       1
     6    5    6       1
     7    6    7       1
     8    7    8       1
     9    7    9       1
    10    8   13       1
    11    9   10       1
    12    9   11       1
    13   11   12       1
    14   11   13       1
    15   13   14       1
    16   14   15       1
    17   14   24       1
    18   15   16       2
    19   16   17       1
    20   17   18       1
    21   17   24       2
    22   18   19       2
    23   18   20       1
    24   20   21       2
    25   21   22       1
    26   21   23       1
    27   23   24       1
    28    6   25       1
    29    6   26       1
    30    7   27       1
    31    9   28       1
    32   10   29       1
    33   11   30       1
    34   12   31       1
    35   13   32       1
    36   15   33       1
    37   22   35       1
    38   22   34       1
    39   23   36       1
@<TRIPOS>SUBSTRUCTURE
     1 5GP605      1 GROUP             4 B     5GP     0 **** 5GP B 605
