@<TRIPOS>MOLECULE
4dyd_NAD_1_ligand
   70    74     1     0     0
SMALL
NO_CHARGES


@<TRIPOS>ATOM
     1 PA          39.3330    31.4970    71.1530 P.3          1 NAD301   0.0000
     2 O1A         39.4720    32.9600    71.3240 O.co2        1 NAD301   0.0000
     3 O2A         40.4820    30.7210    70.6340 O.co2        1 NAD301  -1.0000
     4 O5B         38.8550    30.8460    72.5470 O.3          1 NAD301   0.0000
     5 C5B         39.3350    29.5630    72.9630 C.3          1 NAD301   0.0000
     6 C4B         38.3580    28.9610    73.9760 C.3          1 NAD301   0.0000
     7 O4B         38.9220    27.7390    74.4910 O.3          1 NAD301   0.0000
     8 C3B         38.2400    29.8880    75.1760 C.3          1 NAD301   0.0000
     9 O3B         37.0280    29.5930    75.8840 O.3          1 NAD301   0.0000
    10 C2B         39.4290    29.4300    75.9980 C.3          1 NAD301   0.0000
    11 O2B         39.2720    29.8470    77.3620 O.3          1 NAD301   0.0000
    12 C1B         39.1360    27.9460    75.8970 C.3          1 NAD301   0.0000
    13 N9A         40.2090    27.0990    76.4650 N.pl3        1 NAD301   0.0000
    14 C8A         41.4500    27.4860    76.7440 C.2          1 NAD301   0.0000
    15 N7A         42.1180    26.4210    77.1770 N.2          1 NAD301   0.0000
    16 C5A         41.2890    25.3800    77.1740 C.ar         1 NAD301   0.0000
    17 C6A         41.4600    24.1210    77.5680 C.ar         1 NAD301   0.0000
    18 N6A         42.6600    23.8110    78.0520 N.pl3        1 NAD301   0.0000
    19 N1A         40.4620    23.2270    77.5410 N.ar         1 NAD301   0.0000
    20 C2A         39.2050    23.6350    77.0830 C.ar         1 NAD301   0.0000
    21 N3A         39.0590    24.9650    76.6720 N.ar         1 NAD301   0.0000
    22 C4A         40.1060    25.7990    76.7300 C.ar         1 NAD301   0.0000
    23 O3          38.0720    31.2310    70.1900 O.3          1 NAD301   0.0000
    24 PN          38.3080    30.8720    68.6390 P.3          1 NAD301   0.0000
    25 O1N         39.6460    31.3540    68.2300 O.co2        1 NAD301   0.0000
    26 O2N         37.1270    31.3100    67.8610 O.co2        1 NAD301  -1.0000
    27 O5D         38.3390    29.2620    68.6590 O.3          1 NAD301   0.0000
    28 C5D         39.5150    28.5660    68.2360 C.3          1 NAD301   0.0000
    29 C4D         39.1140    27.2160    67.6380 C.3          1 NAD301   0.0000
    30 O4D         38.1670    27.4760    66.5860 O.3          1 NAD301   0.0000
    31 C3D         40.3220    26.6310    66.9270 C.3          1 NAD301   0.0000
    32 O3D         40.0610    25.2770    66.5280 O.3          1 NAD301   0.0000
    33 C2D         40.3480    27.5330    65.7090 C.3          1 NAD301   0.0000
    34 O2D         41.1510    26.9550    64.6690 O.3          1 NAD301   0.0000
    35 C1D         38.8800    27.4300    65.3370 C.3          1 NAD301   0.0000
    36 N1N         38.4530    28.4650    64.3680 N.ar         1 NAD301   1.0000
    37 C2N         38.6860    29.8200    64.6340 C.ar         1 NAD301   0.0000
    38 C3N         38.3860    30.7770    63.6710 C.ar         1 NAD301   0.0000
    39 C7N         38.5130    32.1300    63.9690 C.2          1 NAD301   0.0000
    40 O7N         38.1700    32.9910    63.1600 O.2          1 NAD301   0.0000
    41 N7N         38.9860    32.3990    65.1820 N.am         1 NAD301   0.0000
    42 C4N         37.8570    30.3870    62.4450 C.ar         1 NAD301   0.0000
    43 C5N         37.5980    29.0460    62.1840 C.ar         1 NAD301   0.0000
    44 C6N         37.8940    28.0820    63.1420 C.ar         1 NAD301   0.0000
    45 H5B1        40.2351    29.6645    73.3867 H            1 NAD301   0.0000
    46 H5B2        39.4066    28.9596    72.1688 H            1 NAD301   0.0000
    47 H4B         37.4639    28.7967    73.5593 H            1 NAD301   0.0000
    48 H3B         38.3047    30.8522    74.9190 H            1 NAD301   0.0000
    49 H5          36.6889    30.4240    76.3250 H            1 NAD301   0.0000
    50 H2B         40.3098    29.6892    75.6018 H            1 NAD301   0.0000
    51 H7          38.7894    29.1366    77.8743 H            1 NAD301   0.0000
    52 H1B         38.2837    27.7533    76.3832 H            1 NAD301   0.0000
    53 H8A         41.8153    28.4117    76.6458 H            1 NAD301   0.0000
    54 H6A1        42.8480    22.8797    78.3640 H            1 NAD301   0.0000
    55 H6A2        43.3739    24.5093    78.1038 H            1 NAD301   0.0000
    56 H2A         38.4355    22.9972    77.0502 H            1 NAD301   0.0000
    57 H5D1        40.1167    28.4184    69.0210 H            1 NAD301   0.0000
    58 H5D2        39.9943    29.1082    67.5459 H            1 NAD301   0.0000
    59 H4D         38.7466    26.5933    68.3288 H            1 NAD301   0.0000
    60 H3D         41.1561    26.7096    67.4729 H            1 NAD301   0.0000
    61 H17         40.8643    24.9061    66.0620 H            1 NAD301   0.0000
    62 H2D         40.6228    28.4687    65.9305 H            1 NAD301   0.0000
    63 H19         42.0864    26.8309    65.0001 H            1 NAD301   0.0000
    64 H1D         38.7257    26.5329    64.9230 H            1 NAD301   0.0000
    65 H2N         39.0676    30.0989    65.5153 H            1 NAD301   0.0000
    66 H7N1        39.1067    33.3483    65.4724 H            1 NAD301   0.0000
    67 H7N2        39.2211    31.6521    65.8040 H            1 NAD301   0.0000
    68 H4N         37.6617    31.0756    61.7467 H            1 NAD301   0.0000
    69 H5N         37.1991    28.7748    61.3080 H            1 NAD301   0.0000
    70 H6N         37.7081    27.1172    62.9559 H            1 NAD301   0.0000
@<TRIPOS>BOND
     1    1    2      ar
     2    1    3      ar
     3    1    4       1
     4    1   23       1
     5    4    5       1
     6    5    6       1
     7    6    7       1
     8    6    8       1
     9    7   12       1
    10    8    9       1
    11    8   10       1
    12   10   11       1
    13   10   12       1
    14   12   13       1
    15   13   14       1
    16   13   22       1
    17   14   15       2
    18   15   16       1
    19   16   17      ar
    20   16   22      ar
    21   17   18       1
    22   17   19      ar
    23   19   20      ar
    24   20   21      ar
    25   21   22      ar
    26   23   24       1
    27   24   25      ar
    28   24   26      ar
    29   24   27       1
    30   27   28       1
    31   28   29       1
    32   29   30       1
    33   29   31       1
    34   30   35       1
    35   31   32       1
    36   31   33       1
    37   33   34       1
    38   33   35       1
    39   35   36       1
    40   36   37      ar
    41   36   44      ar
    42   37   38      ar
    43   38   39       1
    44   38   42      ar
    45   39   40       2
    46   39   41      am
    47   42   43      ar
    48   43   44      ar
    49   44   70       1
    50    5   45       1
    51    5   46       1
    52    6   47       1
    53    8   48       1
    54    9   49       1
    55   10   50       1
    56   11   51       1
    57   12   52       1
    58   14   53       1
    59   18   54       1
    60   18   55       1
    61   20   56       1
    62   43   69       1
    63   28   57       1
    64   28   58       1
    65   29   59       1
    66   31   60       1
    67   32   61       1
    68   33   62       1
    69   34   63       1
    70   35   64       1
    71   37   65       1
    72   41   66       1
    73   41   67       1
    74   42   68       1
@<TRIPOS>SUBSTRUCTURE
     1 NAD301      1 GROUP             4 A     NAD     0 **** NAD A 301
