@<TRIPOS>MOLECULE
3u7l_UDB_1_ligand
   60    61     1     0     0
SMALL
NO_CHARGES


@<TRIPOS>ATOM
     1 C          -16.8740   144.9230    44.9580 C.2          1 UDB192   0.0000
     2 N          -16.0370   146.3170    46.6820 N.am         1 UDB192   0.0000
     3 O          -16.1710   145.5090    44.1420 O.2          1 UDB192   0.0000
     4 F1         -10.0940   148.6320    48.9380 F            1 UDB192   0.0000
     5 F2         -12.7090   146.9320    52.5120 F            1 UDB192   0.0000
     6 CA         -17.2370   145.6380    46.2460 C.3          1 UDB192   0.0000
     7 CB         -18.3630   146.6740    46.0830 C.3          1 UDB192   0.0000
     8 CAA        -18.0210   147.6830    44.9910 C.3          1 UDB192   0.0000
     9 CAC        -18.5920   147.4650    47.3790 C.3          1 UDB192   0.0000
    10 CAD        -19.6630   145.9920    45.6880 C.3          1 UDB192   0.0000
    11 CAG        -15.4730   146.1870    47.8710 C.2          1 UDB192   0.0000
    12 OAH        -15.9510   145.4760    48.7450 O.2          1 UDB192   0.0000
    13 NAI        -14.3870   146.9440    47.9520 N.am         1 UDB192   0.0000
    14 CAJ        -13.4380   147.1800    48.9520 C.ar         1 UDB192   0.0000
    15 CAK        -12.2530   147.7720    48.5040 C.ar         1 UDB192   0.0000
    16 CAL        -11.2310   148.0700    49.3920 C.ar         1 UDB192   0.0000
    17 CAM        -11.3950   147.7910    50.7490 C.ar         1 UDB192   0.0000
    18 CAN        -12.5790   147.2020    51.2000 C.ar         1 UDB192   0.0000
    19 CAP        -13.6180   146.8950    50.3060 C.ar         1 UDB192   0.0000
    20 NAS        -17.2940   143.6740    44.7090 N.am         1 UDB192   0.0000
    21 CAT        -16.9020   143.0530    43.4470 C.3          1 UDB192   0.0000
    22 CAU        -18.0650   142.6620    42.5580 C.2          1 UDB192   0.0000
    23 OAV        -19.0850   143.3490    42.4650 O.2          1 UDB192   0.0000
    24 NAW        -17.8610   141.5300    41.8770 N.am         1 UDB192   0.0000
    25 OAX        -18.8110   141.0260    40.9920 O.3          1 UDB192  -1.0000
    26 CAY        -18.1250   142.8400    45.5890 C.3          1 UDB192   0.0000
    27 CAZ        -17.2410   142.1170    46.6130 C.3          1 UDB192   0.0000
    28 CBA        -16.5180   140.9070    46.0340 C.3          1 UDB192   0.0000
    29 CBB        -16.3880   139.8960    47.1750 C.3          1 UDB192   0.0000
    30 CBC        -17.3700   140.3160    48.2650 C.3          1 UDB192   0.0000
    31 CBD        -18.0800   141.5750    47.7750 C.3          1 UDB192   0.0000
    32 H1         -15.5975   146.9357    46.0308 H            1 UDB192   0.0000
    33 HA         -17.5046   144.9640    46.9346 H            1 UDB192   0.0000
    34 HAA1       -18.7657   148.3447    44.9035 H            1 UDB192   0.0000
    35 HAA2       -17.1766   148.1615    45.2319 H            1 UDB192   0.0000
    36 HAA3       -17.8966   147.2043    44.1219 H            1 UDB192   0.0000
    37 HAC1       -19.3278   148.1276    47.2395 H            1 UDB192   0.0000
    38 HAC2       -18.8452   146.8354    48.1135 H            1 UDB192   0.0000
    39 HAC3       -17.7521   147.9471    47.6281 H            1 UDB192   0.0000
    40 HAD1       -20.3825   146.6791    45.5866 H            1 UDB192   0.0000
    41 HAD2       -19.5368   145.5110    44.8204 H            1 UDB192   0.0000
    42 HAD3       -19.9248   145.3373    46.3971 H            1 UDB192   0.0000
    43 HAI        -14.2072   147.4592    47.1140 H            1 UDB192   0.0000
    44 HAK        -12.1416   147.9826    47.5328 H            1 UDB192   0.0000
    45 HAM        -10.6667   148.0121    51.3976 H            1 UDB192   0.0000
    46 HAP        -14.4678   146.4814    50.6327 H            1 UDB192   0.0000
    47 HAT1       -16.3747   142.2289    43.6538 H            1 UDB192   0.0000
    48 HAT2       -16.3272   143.6992    42.9450 H            1 UDB192   0.0000
    49 HAW        -17.0036   141.0319    42.0064 H            1 UDB192   0.0000
    50 HAY1       -18.6154   142.1641    45.0388 H            1 UDB192   0.0000
    51 HAY2       -18.7832   143.4193    46.0699 H            1 UDB192   0.0000
    52 HAZ        -16.5645   142.7603    46.9716 H            1 UDB192   0.0000
    53 HBA1       -15.6128   141.1714    45.7011 H            1 UDB192   0.0000
    54 HBA2       -17.0479   140.5142    45.2824 H            1 UDB192   0.0000
    55 HBB1       -15.4546   139.9026    47.5338 H            1 UDB192   0.0000
    56 HBB2       -16.6124   138.9784    46.8468 H            1 UDB192   0.0000
    57 HBC1       -16.8774   140.5091    49.1136 H            1 UDB192   0.0000
    58 HBC2       -18.0362   139.5875    48.4247 H            1 UDB192   0.0000
    59 HBD1       -19.0030   141.3522    47.4613 H            1 UDB192   0.0000
    60 HBD2       -18.1319   142.2514    48.5097 H            1 UDB192   0.0000
@<TRIPOS>BOND
     1    1    3       2
     2    1    6       1
     3    1   20      am
     4    2    6       1
     5    2   11      am
     6    4   16       1
     7    5   18       1
     8    6    7       1
     9    7    8       1
    10    7    9       1
    11    7   10       1
    12   11   12       2
    13   11   13      am
    14   13   14       1
    15   14   15      ar
    16   14   19      ar
    17   15   16      ar
    18   16   17      ar
    19   17   18      ar
    20   18   19      ar
    21   20   21       1
    22   20   26       1
    23   21   22       1
    24   22   23       2
    25   22   24      am
    26   24   25       1
    27   26   27       1
    28   27   28       1
    29   27   31       1
    30   28   29       1
    31   29   30       1
    32   30   31       1
    33    2   32       1
    34    6   33       1
    35    8   34       1
    36    8   35       1
    37    8   36       1
    38    9   37       1
    39    9   38       1
    40    9   39       1
    41   10   40       1
    42   10   41       1
    43   10   42       1
    44   13   43       1
    45   15   44       1
    46   17   45       1
    47   19   46       1
    48   21   47       1
    49   21   48       1
    50   24   49       1
    51   31   60       1
    52   26   50       1
    53   26   51       1
    54   27   52       1
    55   28   53       1
    56   28   54       1
    57   29   55       1
    58   29   56       1
    59   30   57       1
    60   30   58       1
    61   31   59       1
@<TRIPOS>SUBSTRUCTURE
     1 UDB192      1 GROUP             4 A     UDB     0 **** UDB A 192
