@<TRIPOS>MOLECULE
4ube_2FA_1_ligand
   32    34     1     0     0
SMALL
NO_CHARGES


@<TRIPOS>ATOM
     1 O5'         14.7030    59.9680    21.8140 O.3          1 2FA401   0.0000
     2 C5'         13.7060    60.6640    22.5710 C.3          1 2FA401   0.0000
     3 C4'         12.6460    59.7230    23.0990 C.3          1 2FA401   0.0000
     4 O4'         13.2820    58.6550    23.8020 O.3          1 2FA401   0.0000
     5 C1'         12.3230    58.0510    24.6520 C.3          1 2FA401   0.0000
     6 N9          13.0600    57.3850    25.7290 N.pl3        1 2FA401   0.0000
     7 C4          13.1420    56.0260    25.9900 C.ar         1 2FA401   0.0000
     8 N3          12.5590    54.9420    25.4130 N.ar         1 2FA401   0.0000
     9 C2          12.8260    53.7430    25.8970 C.ar         1 2FA401   0.0000
    10 F           12.2490    52.6440    25.3040 F            1 2FA401   0.0000
    11 N1          13.6200    53.5460    26.9140 N.ar         1 2FA401   0.0000
    12 C6          14.2330    54.5810    27.5190 C.ar         1 2FA401   0.0000
    13 N6          15.1230    54.3330    28.6680 N.pl3        1 2FA401   0.0000
    14 C5          13.9840    55.8580    27.0490 C.ar         1 2FA401   0.0000
    15 N7          14.4450    57.1670    27.4420 N.2          1 2FA401   0.0000
    16 C8          13.9030    58.0390    26.6380 C.2          1 2FA401   0.0000
    17 C2'         11.4030    59.1930    25.1240 C.3          1 2FA401   0.0000
    18 O2'         10.0490    58.7850    25.2190 O.3          1 2FA401   0.0000
    19 C3'         11.6670    60.3330    24.1050 C.3          1 2FA401   0.0000
    20 O3'         10.4560    60.6760    23.4390 O.3          1 2FA401   0.0000
    21 H5'         14.2721    59.5111    21.0358 H            1 2FA401   0.0000
    22 H5'1        13.2704    61.3459    21.9834 H            1 2FA401   0.0000
    23 H5'2        14.1465    61.1220    23.3432 H            1 2FA401   0.0000
    24 H4'         12.1309    59.3463    22.3291 H            1 2FA401   0.0000
    25 H1'         11.7912    57.3776    24.1384 H            1 2FA401   0.0000
    26 H6          15.5804    55.0985    29.1205 H            1 2FA401   0.0000
    27 H7          15.2692    53.3993    28.9948 H            1 2FA401   0.0000
    28 H8          14.0645    59.0255    26.6658 H            1 2FA401   0.0000
    29 H2'         11.7085    59.4957    26.0268 H            1 2FA401   0.0000
    30 H10          9.4898    59.5545    25.5275 H            1 2FA401   0.0000
    31 H3'         12.0668    61.1312    24.5556 H            1 2FA401   0.0000
    32 H12         10.0359    61.4609    23.8944 H            1 2FA401   0.0000
@<TRIPOS>BOND
     1    1    2       1
     2    2    3       1
     3    3    4       1
     4    3   19       1
     5    4    5       1
     6    5    6       1
     7    5   17       1
     8    6    7       1
     9    6   16       1
    10    7    8      ar
    11    7   14      ar
    12    8    9      ar
    13    9   10       1
    14    9   11      ar
    15   11   12      ar
    16   12   13       1
    17   12   14      ar
    18   14   15       1
    19   15   16       2
    20   17   18       1
    21   17   19       1
    22   19   20       1
    23    1   21       1
    24    2   22       1
    25    2   23       1
    26    3   24       1
    27    5   25       1
    28   13   26       1
    29   13   27       1
    30   16   28       1
    31   17   29       1
    32   18   30       1
    33   19   31       1
    34   20   32       1
@<TRIPOS>SUBSTRUCTURE
     1 2FA401      1 GROUP             4 A     2FA     0 **** 2FA A 401
