@<TRIPOS>MOLECULE
3t50_FMN_2_ligand
   50    52     1     0     0
SMALL
NO_CHARGES


@<TRIPOS>ATOM
     1 N1          15.3780   -30.0900    -0.4200 N.2          1 FMN201   0.0000
     2 C2          14.6220   -31.2000    -0.1550 C.2          1 FMN201   0.0000
     3 O2          15.0530   -32.0390     0.6370 O.2          1 FMN201   0.0000
     4 N3          13.3800   -31.3950    -0.7730 N.pl3        1 FMN201   0.0000
     5 C4          12.9550   -30.4550    -1.6760 C.2          1 FMN201   0.0000
     6 O4          11.8480   -30.6240    -2.1910 O.2          1 FMN201   0.0000
     7 C4A         13.7330   -29.3200    -1.9470 C.2          1 FMN201   0.0000
     8 N5          13.3070   -28.3630    -2.8360 N.2          1 FMN201   0.0000
     9 C5A         14.0830   -27.2510    -3.1030 C.ar         1 FMN201   0.0000
    10 C6          13.6490   -26.3220    -4.0260 C.ar         1 FMN201   0.0000
    11 C7          14.4220   -25.2080    -4.3300 C.ar         1 FMN201   0.0000
    12 C7M         13.8590   -24.1740    -5.2950 C.3          1 FMN201   0.0000
    13 C8          15.6270   -24.9950    -3.6500 C.ar         1 FMN201   0.0000
    14 C8M         16.5410   -23.8350    -3.9010 C.3          1 FMN201   0.0000
    15 C9          16.0770   -25.9430    -2.7270 C.ar         1 FMN201   0.0000
    16 C9A         15.3220   -27.0810    -2.4740 C.ar         1 FMN201   0.0000
    17 N10         15.7230   -28.0290    -1.5300 N.pl3        1 FMN201   0.0000
    18 C10         14.9400   -29.1420    -1.3030 C.2          1 FMN201   0.0000
    19 C1'         17.0640   -27.9660    -0.8890 C.3          1 FMN201   0.0000
    20 C2'         17.1740   -27.4270     0.5210 C.3          1 FMN201   0.0000
    21 O2'         16.4270   -26.2320     0.5090 O.3          1 FMN201   0.0000
    22 C3'         18.6690   -27.1010     0.7640 C.3          1 FMN201   0.0000
    23 O3'         19.1990   -26.3280    -0.2850 O.3          1 FMN201   0.0000
    24 C4'         19.5150   -28.3900     0.9400 C.3          1 FMN201   0.0000
    25 O4'         19.0450   -29.0660     2.0740 O.3          1 FMN201   0.0000
    26 C5'         21.0070   -28.1030     1.0540 C.3          1 FMN201   0.0000
    27 O5'         21.3840   -27.0290     1.9320 O.3          1 FMN201   0.0000
    28 P           21.6010   -27.3220     3.5140 P.3          1 FMN201   0.0000
    29 O1P         20.4040   -27.9460     4.0970 O.co2        1 FMN201   0.0000
    30 O2P         21.8620   -25.9710     4.1370 O.co2        1 FMN201  -1.0000
    31 O3P         22.7900   -28.2700     3.6860 O.co2        1 FMN201  -1.0000
    32 H1          12.8200   -32.1961    -0.5618 H            1 FMN201   0.0000
    33 H2          12.7682   -26.4518    -4.4814 H            1 FMN201   0.0000
    34 H7M1        14.5221   -23.4354    -5.4163 H            1 FMN201   0.0000
    35 H7M2        13.6767   -24.6066    -6.1780 H            1 FMN201   0.0000
    36 H7M3        13.0084   -23.8008    -4.9247 H            1 FMN201   0.0000
    37 H8M1        17.3347   -23.8991    -3.2961 H            1 FMN201   0.0000
    38 H8M2        16.8455   -23.8506    -4.8534 H            1 FMN201   0.0000
    39 H8M3        16.0529   -22.9810    -3.7211 H            1 FMN201   0.0000
    40 H9          16.9435   -25.8018    -2.2482 H            1 FMN201   0.0000
    41 H1'1        17.6403   -27.3906    -1.4693 H            1 FMN201   0.0000
    42 H1'2        17.4279   -28.8974    -0.8767 H            1 FMN201   0.0000
    43 H2'         16.8223   -28.0770     1.1946 H            1 FMN201   0.0000
    44 H13         16.4533   -25.8134     1.4168 H            1 FMN201   0.0000
    45 H3'         18.7371   -26.5678     1.6072 H            1 FMN201   0.0000
    46 H15         19.5705   -26.9325    -0.9897 H            1 FMN201   0.0000
    47 H4'         19.3674   -28.9743     0.1420 H            1 FMN201   0.0000
    48 H17         19.5454   -28.7517     2.8807 H            1 FMN201   0.0000
    49 H5'1        21.3454   -27.8818     0.1394 H            1 FMN201   0.0000
    50 H5'2        21.4532   -28.9356     1.3822 H            1 FMN201   0.0000
@<TRIPOS>BOND
     1    1    2       1
     2    1   18       2
     3    2    3       2
     4    2    4       1
     5    4    5       1
     6    5    6       2
     7    5    7       1
     8    7    8       2
     9    7   18       1
    10    8    9       1
    11    9   10      ar
    12    9   16      ar
    13   10   11      ar
    14   11   12       1
    15   11   13      ar
    16   13   14       1
    17   13   15      ar
    18   15   16      ar
    19   16   17       1
    20   17   18       1
    21   17   19       1
    22   19   20       1
    23   20   21       1
    24   20   22       1
    25   22   23       1
    26   22   24       1
    27   24   25       1
    28   24   26       1
    29   26   27       1
    30   27   28       1
    31   28   29      ar
    32   28   30      ar
    33   28   31      ar
    34    4   32       1
    35   10   33       1
    36   12   34       1
    37   12   35       1
    38   12   36       1
    39   14   37       1
    40   14   38       1
    41   14   39       1
    42   15   40       1
    43   19   41       1
    44   19   42       1
    45   20   43       1
    46   21   44       1
    47   22   45       1
    48   23   46       1
    49   24   47       1
    50   25   48       1
    51   26   49       1
    52   26   50       1
@<TRIPOS>SUBSTRUCTURE
     1 FMN201      1 GROUP             4 B     FMN     0 **** FMN B 201
