@<TRIPOS>MOLECULE
2y65_ADP_2_ligand
   39    41     1     0     0
SMALL
NO_CHARGES


@<TRIPOS>ATOM
     1 PB          23.7160    26.5390   -38.9410 P.3          1 ADP603   0.0000
     2 O1B         22.8530    26.0220   -37.8290 O.co2        1 ADP603   0.0000
     3 O2B         25.1680    26.7220   -38.6580 O.co2        1 ADP603  -1.0000
     4 O3B         23.0100    27.6600   -39.6700 O.co2        1 ADP603  -1.0000
     5 PA          24.8830    24.4390   -40.5620 P.3          1 ADP603   0.0000
     6 O1A         25.3530    23.5860   -39.3900 O.co2        1 ADP603   0.0000
     7 O2A         25.9280    25.1720   -41.3490 O.co2        1 ADP603  -1.0000
     8 O3A         23.6630    25.3310   -40.0280 O.3          1 ADP603   0.0000
     9 O5'         24.0960    23.4680   -41.5900 O.3          1 ADP603   0.0000
    10 C5'         23.0490    22.5840   -41.1570 C.3          1 ADP603   0.0000
    11 C4'         23.3280    21.1870   -41.7180 C.3          1 ADP603   0.0000
    12 O4'         23.1010    21.2840   -43.1240 O.3          1 ADP603   0.0000
    13 C3'         24.8050    20.7800   -41.5900 C.3          1 ADP603   0.0000
    14 O3'         24.8500    19.3450   -41.5520 O.3          1 ADP603   0.0000
    15 C2'         25.4580    21.2030   -42.8910 C.3          1 ADP603   0.0000
    16 O2'         26.5050    20.3210   -43.2990 O.3          1 ADP603   0.0000
    17 C1'         24.3040    20.9830   -43.8440 C.3          1 ADP603   0.0000
    18 N9          24.3420    22.0040   -44.9120 N.pl3        1 ADP603   0.0000
    19 C8          24.1530    23.3150   -44.7100 C.2          1 ADP603   0.0000
    20 N7          24.2340    23.9900   -45.8810 N.2          1 ADP603   0.0000
    21 C5          24.3820    23.1060   -46.8900 C.ar         1 ADP603   0.0000
    22 C6          24.4970    23.1520   -48.3720 C.ar         1 ADP603   0.0000
    23 N6          24.4630    24.3180   -49.0430 N.pl3        1 ADP603   0.0000
    24 N1          24.6630    22.0000   -49.0200 N.ar         1 ADP603   0.0000
    25 C2          24.7050    20.8320   -48.3750 C.ar         1 ADP603   0.0000
    26 N3          24.6050    20.7330   -47.0460 N.ar         1 ADP603   0.0000
    27 C4          24.4390    21.7920   -46.2370 C.ar         1 ADP603   0.0000
    28 H5'1        22.1678    22.9136   -41.4960 H            1 ADP603   0.0000
    29 H5'2        23.0296    22.5484   -40.1578 H            1 ADP603   0.0000
    30 H4'         22.7278    20.5041   -41.3015 H            1 ADP603   0.0000
    31 H3'         25.2446    21.1942   -40.7930 H            1 ADP603   0.0000
    32 H5          24.0846    18.9735   -42.0774 H            1 ADP603   0.0000
    33 H2'         25.7548    22.1577   -42.8715 H            1 ADP603   0.0000
    34 H7          26.3081    19.3965   -42.9727 H            1 ADP603   0.0000
    35 H1'         24.2962    20.0541   -44.2143 H            1 ADP603   0.0000
    36 H9          23.9770    23.7356   -43.8200 H            1 ADP603   0.0000
    37 H10         24.5422    24.3237   -50.0398 H            1 ADP603   0.0000
    38 H11         24.3585    25.1787   -48.5448 H            1 ADP603   0.0000
    39 H12         24.8162    19.9943   -48.9097 H            1 ADP603   0.0000
@<TRIPOS>BOND
     1    1    2      ar
     2    1    3      ar
     3    1    4      ar
     4    1    8       1
     5    5    6      ar
     6    5    7      ar
     7    5    8       1
     8    5    9       1
     9    9   10       1
    10   10   11       1
    11   11   12       1
    12   11   13       1
    13   12   17       1
    14   13   14       1
    15   13   15       1
    16   15   16       1
    17   15   17       1
    18   17   18       1
    19   18   19       1
    20   18   27       1
    21   19   20       2
    22   20   21       1
    23   21   22      ar
    24   21   27      ar
    25   22   23       1
    26   22   24      ar
    27   24   25      ar
    28   25   26      ar
    29   26   27      ar
    30   25   39       1
    31   23   38       1
    32   23   37       1
    33   10   28       1
    34   10   29       1
    35   11   30       1
    36   13   31       1
    37   14   32       1
    38   15   33       1
    39   16   34       1
    40   17   35       1
    41   19   36       1
@<TRIPOS>SUBSTRUCTURE
     1 ADP603      1 GROUP             4 B     ADP     0 **** ADP B 603
