@<TRIPOS>MOLECULE
5eku_SAH_2_ligand
   46    48     1     0     0
SMALL
NO_CHARGES


@<TRIPOS>ATOM
     1 N           15.0820   113.2200    57.7400 N.4          1 SAH401   1.0000
     2 CA          15.8140   112.1770    57.1570 C.3          1 SAH401   0.0000
     3 CB          15.5350   112.1180    55.6500 C.3          1 SAH401   0.0000
     4 CG          15.1380   110.6510    55.2840 C.3          1 SAH401   0.0000
     5 SD          15.3050   110.3980    53.5010 S.3          1 SAH401   0.0000
     6 C           17.2870   112.3980    57.3970 C.2          1 SAH401   0.0000
     7 O           17.8070   113.4360    57.0180 O.co2        1 SAH401   0.0000
     8 OXT         17.9620   111.5390    57.9710 O.co2        1 SAH401  -1.0000
     9 C5'         13.6430   110.3210    52.7690 C.3          1 SAH401   0.0000
    10 C4'         12.6730   109.7240    53.8170 C.3          1 SAH401   0.0000
    11 O4'         11.5280   110.3820    53.7870 O.3          1 SAH401   0.0000
    12 C3'         12.3540   108.2900    53.4690 C.3          1 SAH401   0.0000
    13 O3'         12.4630   107.5320    54.5570 O.3          1 SAH401   0.0000
    14 C2'         10.8820   108.2960    52.9800 C.3          1 SAH401   0.0000
    15 O2'         10.2060   107.0540    53.4370 O.3          1 SAH401   0.0000
    16 C1'         10.3450   109.3370    53.5360 C.3          1 SAH401   0.0000
    17 N9           9.3850   109.9450    52.6930 N.pl3        1 SAH401   0.0000
    18 C8           9.4450   110.1420    51.3510 C.2          1 SAH401   0.0000
    19 N7           8.3040   110.7770    50.9610 N.2          1 SAH401   0.0000
    20 C5           7.5340   110.9770    52.0710 C.ar         1 SAH401   0.0000
    21 C6           6.2970   111.5650    52.2510 C.ar         1 SAH401   0.0000
    22 N6           5.3340   112.1850    51.4150 N.pl3        1 SAH401   0.0000
    23 N1           5.7500   111.6340    53.4910 N.ar         1 SAH401   0.0000
    24 C2           6.4250   111.1190    54.5680 C.ar         1 SAH401   0.0000
    25 N3           7.6450   110.5370    54.3920 N.ar         1 SAH401   0.0000
    26 C4           8.2050   110.4650    53.1410 C.ar         1 SAH401   0.0000
    27 H1          15.2699   113.2510    58.7217 H            1 SAH401   0.0000
    28 H2          15.3485   114.0885    57.3220 H            1 SAH401   0.0000
    29 HA          15.5402   111.3109    57.5751 H            1 SAH401   0.0000
    30 HB1         16.3553   112.3832    55.1432 H            1 SAH401   0.0000
    31 HB2         14.7857   112.7389    55.4199 H            1 SAH401   0.0000
    32 HG1         14.1897   110.4861    55.5553 H            1 SAH401   0.0000
    33 HG2         15.7386   110.0141    55.7674 H            1 SAH401   0.0000
    34 H5'1        13.6593   109.7404    51.9550 H            1 SAH401   0.0000
    35 H5'2        13.3425   111.2407    52.5164 H            1 SAH401   0.0000
    36 H4'         13.0771   109.7759    54.7303 H            1 SAH401   0.0000
    37 H3'         12.9627   107.9595    52.7478 H            1 SAH401   0.0000
    38 H12         11.8228   107.8552    55.2539 H            1 SAH401   0.0000
    39 H2'         10.8432   108.3707    51.9836 H            1 SAH401   0.0000
    40 H14         10.2262   107.0117    54.4359 H            1 SAH401   0.0000
    41 H1'          9.9236   109.0814    54.4061 H            1 SAH401   0.0000
    42 H16         10.1972   109.8682    50.7517 H            1 SAH401   0.0000
    43 H17          4.4869   112.5428    51.8080 H            1 SAH401   0.0000
    44 H18          5.5019   112.2644    50.4324 H            1 SAH401   0.0000
    45 H19          6.0224   111.1704    55.4819 H            1 SAH401   0.0000
    46 H20         14.1052   113.0649    57.5923 H            1 SAH401   0.0000
@<TRIPOS>BOND
     1    1    2       1
     2    2    3       1
     3    2    6       1
     4    3    4       1
     5    4    5       1
     6    5    9       1
     7    6    7      ar
     8    6    8      ar
     9    9   10       1
    10   10   11       1
    11   10   12       1
    12   11   16       1
    13   12   13       1
    14   12   14       1
    15   14   15       1
    16   14   16       1
    17   16   17       1
    18   17   18       1
    19   17   26       1
    20   18   19       2
    21   19   20       1
    22   20   21      ar
    23   20   26      ar
    24   21   22       1
    25   21   23      ar
    26   23   24      ar
    27   24   25      ar
    28   25   26      ar
    29    1   27       1
    30    1   28       1
    31    2   29       1
    32    3   30       1
    33    3   31       1
    34    4   32       1
    35    4   33       1
    36    1   46       1
    37    9   34       1
    38    9   35       1
    39   10   36       1
    40   12   37       1
    41   13   38       1
    42   14   39       1
    43   15   40       1
    44   16   41       1
    45   18   42       1
    46   22   43       1
    47   22   44       1
    48   24   45       1
@<TRIPOS>SUBSTRUCTURE
     1 SAH401      1 GROUP             4 B     SAH     0 **** SAH B 401
