@<TRIPOS>MOLECULE
5l8l_ADP_1_ligand
   39    41     1     0     0
SMALL
NO_CHARGES


@<TRIPOS>ATOM
     1 PB           5.0010    -8.2240   -10.4270 P.3          1 ADP501   0.0000
     2 O1B          5.0940    -9.2650   -11.5180 O.co2        1 ADP501   0.0000
     3 O2B          6.3120    -7.9510    -9.7190 O.co2        1 ADP501  -1.0000
     4 O3B          3.8140    -8.3840    -9.5100 O.co2        1 ADP501  -1.0000
     5 PA           5.3760    -6.3590   -12.5490 P.3          1 ADP501   0.0000
     6 O1A          5.6150    -7.4840   -13.5240 O.co2        1 ADP501   0.0000
     7 O2A          6.4950    -5.4210   -12.1980 O.co2        1 ADP501  -1.0000
     8 O3A          4.6410    -6.8600   -11.2070 O.3          1 ADP501   0.0000
     9 O5'          4.1840    -5.5240   -13.2030 O.3          1 ADP501   0.0000
    10 C5'          3.7450    -4.2560   -12.7560 C.3          1 ADP501   0.0000
    11 C4'          3.1030    -3.6390   -13.9850 C.3          1 ADP501   0.0000
    12 O4'          3.9910    -2.6470   -14.4810 O.3          1 ADP501   0.0000
    13 C3'          2.9640    -4.6670   -15.0970 C.3          1 ADP501   0.0000
    14 O3'          1.5970    -5.0500   -15.2520 O.3          1 ADP501   0.0000
    15 C2'          3.4410    -4.0030   -16.3620 C.3          1 ADP501   0.0000
    16 O2'          2.3010    -3.6400   -17.1410 O.3          1 ADP501   0.0000
    17 C1'          4.1240    -2.7340   -15.8910 C.3          1 ADP501   0.0000
    18 N9           5.5800    -2.8530   -16.1230 N.pl3        1 ADP501   0.0000
    19 C8           6.4430    -3.5490   -15.3540 C.2          1 ADP501   0.0000
    20 N7           7.7150    -3.4330   -15.8310 N.2          1 ADP501   0.0000
    21 C5           7.6400    -2.6540   -16.9250 C.ar         1 ADP501   0.0000
    22 C6           8.6110    -2.1620   -17.9090 C.ar         1 ADP501   0.0000
    23 N6           9.9070    -2.5050   -17.7320 N.pl3        1 ADP501   0.0000
    24 N1           8.1670    -1.3650   -18.9050 N.ar         1 ADP501   0.0000
    25 C2           6.8580    -1.0540   -19.0240 C.ar         1 ADP501   0.0000
    26 N3           5.9060    -1.4800   -18.1620 N.ar         1 ADP501   0.0000
    27 C4           6.2410    -2.2680   -17.1110 C.ar         1 ADP501   0.0000
    28 H5'1         4.5164    -3.7027   -12.4417 H            1 ADP501   0.0000
    29 H5'2         3.0791    -4.3504   -12.0160 H            1 ADP501   0.0000
    30 H4'          2.2149    -3.2390   -13.7585 H            1 ADP501   0.0000
    31 H3'          3.5259    -5.4695   -14.8963 H            1 ADP501   0.0000
    32 H5           1.0347    -4.5534   -14.5908 H            1 ADP501   0.0000
    33 H2'          4.0667    -4.5910   -16.8746 H            1 ADP501   0.0000
    34 H7           1.5573    -4.2846   -16.9639 H            1 ADP501   0.0000
    35 H1'          3.7467    -1.9263   -16.3441 H            1 ADP501   0.0000
    36 H9           6.1850    -4.0774   -14.5452 H            1 ADP501   0.0000
    37 H10         10.6005    -2.1903   -18.3801 H            1 ADP501   0.0000
    38 H11         10.1719    -3.0734   -16.9530 H            1 ADP501   0.0000
    39 H12          6.5771    -0.4773   -19.7912 H            1 ADP501   0.0000
@<TRIPOS>BOND
     1    1    2      ar
     2    1    3      ar
     3    1    4      ar
     4    1    8       1
     5    5    6      ar
     6    5    7      ar
     7    5    8       1
     8    5    9       1
     9    9   10       1
    10   10   11       1
    11   11   12       1
    12   11   13       1
    13   12   17       1
    14   13   14       1
    15   13   15       1
    16   15   16       1
    17   15   17       1
    18   17   18       1
    19   18   19       1
    20   18   27       1
    21   19   20       2
    22   20   21       1
    23   21   22      ar
    24   21   27      ar
    25   22   23       1
    26   22   24      ar
    27   24   25      ar
    28   25   26      ar
    29   26   27      ar
    30   25   39       1
    31   23   38       1
    32   23   37       1
    33   10   28       1
    34   10   29       1
    35   11   30       1
    36   13   31       1
    37   14   32       1
    38   15   33       1
    39   16   34       1
    40   17   35       1
    41   19   36       1
@<TRIPOS>SUBSTRUCTURE
     1 ADP501      1 GROUP             4 A     ADP     0 **** ADP A 501
