@<TRIPOS>MOLECULE
2ft0_ACO_2_ligand
   85    87     1     0     0
SMALL
NO_CHARGES


@<TRIPOS>ATOM
     1 N1A         30.4030    53.1230    77.0150 N.ar         1 ACO601   0.0000
     2 C2A         30.5620    51.9190    76.4250 C.ar         1 ACO601   0.0000
     3 N3A         30.2420    50.7570    77.0280 N.ar         1 ACO601   0.0000
     4 C4A         29.7310    50.7320    78.2900 C.ar         1 ACO601   0.0000
     5 C5A         29.5280    52.0100    78.9980 C.ar         1 ACO601   0.0000
     6 C6A         29.9040    53.2510    78.2700 C.ar         1 ACO601   0.0000
     7 N6A         29.7520    54.4720    78.8410 N.pl3        1 ACO601   0.0000
     8 N7A         29.0220    51.7050    80.2080 N.2          1 ACO601   0.0000
     9 C8A         28.9120    50.3510    80.2720 C.2          1 ACO601   0.0000
    10 N9A         29.3330    49.7700    79.1310 N.pl3        1 ACO601   0.0000
    11 C1B         29.3490    48.3100    78.8370 C.3          1 ACO601   0.0000
    12 C2B         30.5600    47.6480    79.4750 C.3          1 ACO601   0.0000
    13 O2B         31.5040    47.2380    78.4750 O.3          1 ACO601   0.0000
    14 C3B         30.0260    46.4670    80.2760 C.3          1 ACO601   0.0000
    15 O3B         30.6890    45.2380    79.9310 O.3          1 ACO601   0.0000
    16 P3B         30.2920    44.2030    78.7460 P.3          1 ACO601   0.0000
    17 O7A         31.5960    43.4810    78.4850 O.co2        1 ACO601   0.0000
    18 O8A         29.2180    43.3410    79.3770 O.co2        1 ACO601  -1.0000
    19 O9A         29.8250    45.0320    77.5670 O.co2        1 ACO601  -1.0000
    20 C4B         28.5160    46.4580    80.0530 C.3          1 ACO601   0.0000
    21 O4B         28.1810    47.6750    79.3680 O.3          1 ACO601   0.0000
    22 C5B         27.7520    46.3770    81.3700 C.3          1 ACO601   0.0000
    23 O5B         27.8330    47.6430    82.0220 O.3          1 ACO601   0.0000
    24 P1A         27.5220    47.7970    83.5880 P.3          1 ACO601   0.0000
    25 O1A         27.7170    46.4790    84.3010 O.co2        1 ACO601   0.0000
    26 O2A         28.2540    49.0200    84.0580 O.co2        1 ACO601  -1.0000
    27 O3A         25.9450    48.1100    83.5150 O.3          1 ACO601   0.0000
    28 P2A         25.0020    48.4970    84.7660 P.3          1 ACO601   0.0000
    29 O4A         23.5940    48.2980    84.2730 O.co2        1 ACO601   0.0000
    30 O5A         25.4380    47.8340    86.0410 O.co2        1 ACO601  -1.0000
    31 O6A         25.2640    50.0670    84.8890 O.3          1 ACO601   0.0000
    32 CBP         25.4020    52.3530    84.0520 C.3          1 ACO601   0.0000
    33 CCP         24.8070    50.9600    83.8660 C.3          1 ACO601   0.0000
    34 CDP         24.7550    53.2940    83.0360 C.3          1 ACO601   0.0000
    35 CEP         25.0490    52.8460    85.4510 C.3          1 ACO601   0.0000
    36 CAP         26.9220    52.2550    83.8550 C.3          1 ACO601   0.0000
    37 OAP         27.2030    51.7550    82.5370 O.3          1 ACO601   0.0000
    38 C9P         27.6080    53.5830    84.0360 C.2          1 ACO601   0.0000
    39 O9P         27.8850    53.9650    85.1590 O.2          1 ACO601   0.0000
    40 N8P         27.8760    54.2910    82.9280 N.am         1 ACO601   0.0000
    41 C7P         28.6060    55.5490    82.9470 C.3          1 ACO601   0.0000
    42 C6P         27.7590    56.7310    83.4120 C.3          1 ACO601   0.0000
    43 C5P         26.5130    56.8920    82.5680 C.2          1 ACO601   0.0000
    44 O5P         26.5480    56.6930    81.3630 O.2          1 ACO601   0.0000
    45 N4P         25.4120    57.2630    83.2280 N.am         1 ACO601   0.0000
    46 C3P         24.0900    57.3060    82.6380 C.3          1 ACO601   0.0000
    47 C2P         23.9220    58.5510    81.7740 C.3          1 ACO601   0.0000
    48 S1P         22.3140    59.2200    82.0280 S.3          1 ACO601   0.0000
    49 C           22.3300    60.0310    83.4920 C.2          1 ACO601   0.0000
    50 O           23.3960    60.3790    83.9750 O.2          1 ACO601   0.0000
    51 CH3         21.0260    60.2990    84.1740 C.3          1 ACO601   0.0000
    52 H2A         30.9345    51.8881    75.4975 H            1 ACO601   0.0000
    53 H6A1        29.3826    54.5484    79.7671 H            1 ACO601   0.0000
    54 H6A2        30.0093    55.2958    78.3358 H            1 ACO601   0.0000
    55 H8A         28.5633    49.8504    81.0644 H            1 ACO601   0.0000
    56 H1B         29.3796    48.1721    77.8470 H            1 ACO601   0.0000
    57 H2B         30.9998    48.2958    80.0970 H            1 ACO601   0.0000
    58 H7          31.0698    46.5850    77.8545 H            1 ACO601   0.0000
    59 H3B         30.1948    46.6484    81.2448 H            1 ACO601   0.0000
    60 H4B         28.2706    45.6766    79.4792 H            1 ACO601   0.0000
    61 H5B1        28.1574    45.6719    81.9518 H            1 ACO601   0.0000
    62 H5B2        26.7945    46.1511    81.1906 H            1 ACO601   0.0000
    63 HCP1        23.8098    51.0219    83.9073 H            1 ACO601   0.0000
    64 HCP2        25.0822    50.6032    82.9733 H            1 ACO601   0.0000
    65 HDP1        25.1342    54.2130    83.1442 H            1 ACO601   0.0000
    66 HDP2        24.9404    52.9637    82.1105 H            1 ACO601   0.0000
    67 HDP3        23.7671    53.3209    83.1886 H            1 ACO601   0.0000
    68 HEP1        25.4322    53.7593    85.5892 H            1 ACO601   0.0000
    69 HEP2        24.0546    52.8833    85.5503 H            1 ACO601   0.0000
    70 HEP3        25.4286    52.2188    86.1311 H            1 ACO601   0.0000
    71 HAP         27.2901    51.6113    84.5259 H            1 ACO601   0.0000
    72 H21         27.7184    50.9009    82.6074 H            1 ACO601   0.0000
    73 H8P         27.5590    53.9372    82.0480 H            1 ACO601   0.0000
    74 H7P1        28.9355    55.7389    82.0221 H            1 ACO601   0.0000
    75 H7P2        29.3858    55.4543    83.5658 H            1 ACO601   0.0000
    76 H6P1        28.3048    57.5664    83.3471 H            1 ACO601   0.0000
    77 H6P2        27.4892    56.5822    84.3633 H            1 ACO601   0.0000
    78 H4P         25.5066    57.5271    84.1879 H            1 ACO601   0.0000
    79 H3P1        23.4059    57.3185    83.3673 H            1 ACO601   0.0000
    80 H3P2        23.9577    56.4932    82.0707 H            1 ACO601   0.0000
    81 H2P1        24.0343    58.3071    80.8107 H            1 ACO601   0.0000
    82 H2P2        24.6106    59.2300    82.0285 H            1 ACO601   0.0000
    83 HH31        21.1921    60.7869    85.0310 H            1 ACO601   0.0000
    84 HH32        20.4474    60.8573    83.5794 H            1 ACO601   0.0000
    85 HH33        20.5667    59.4321    84.3676 H            1 ACO601   0.0000
@<TRIPOS>BOND
     1    1    2      ar
     2    1    6      ar
     3    2    3      ar
     4    3    4      ar
     5    4    5      ar
     6    4   10       1
     7    5    6      ar
     8    5    8       1
     9    6    7       1
    10    8    9       2
    11    9   10       1
    12   10   11       1
    13   11   12       1
    14   11   21       1
    15   12   13       1
    16   12   14       1
    17   14   15       1
    18   14   20       1
    19   15   16       1
    20   16   17      ar
    21   16   18      ar
    22   16   19      ar
    23   20   21       1
    24   20   22       1
    25   22   23       1
    26   23   24       1
    27   24   25      ar
    28   24   26      ar
    29   24   27       1
    30   27   28       1
    31   28   29      ar
    32   28   30      ar
    33   28   31       1
    34   31   33       1
    35   32   33       1
    36   32   34       1
    37   32   35       1
    38   32   36       1
    39   36   37       1
    40   36   38       1
    41   38   39       2
    42   38   40      am
    43   40   41       1
    44   41   42       1
    45   42   43       1
    46   43   44       2
    47   43   45      am
    48   45   46       1
    49   46   47       1
    50   47   48       1
    51   48   49       1
    52   49   50       2
    53   49   51       1
    54    2   52       1
    55    7   53       1
    56    7   54       1
    57    9   55       1
    58   11   56       1
    59   12   57       1
    60   13   58       1
    61   14   59       1
    62   51   85       1
    63   51   84       1
    64   20   60       1
    65   22   61       1
    66   22   62       1
    67   51   83       1
    68   47   82       1
    69   33   63       1
    70   33   64       1
    71   34   65       1
    72   34   66       1
    73   34   67       1
    74   35   68       1
    75   35   69       1
    76   35   70       1
    77   36   71       1
    78   37   72       1
    79   40   73       1
    80   41   74       1
    81   41   75       1
    82   42   76       1
    83   42   77       1
    84   45   78       1
    85   46   79       1
    86   46   80       1
    87   47   81       1
@<TRIPOS>SUBSTRUCTURE
     1 ACO601      1 GROUP             4 B     ACO     0 **** ACO B 601
