@<TRIPOS>MOLECULE
1pyd_TDP_2_ligand
   43    44     1     0     0
SMALL
NO_CHARGES


@<TRIPOS>ATOM
     1 N1'        -11.3680    -6.3390    27.4660 N.ar         1 TDP557   1.0000
     2 C2'        -11.9080    -5.2450    26.9120 C.ar         1 TDP557   0.0000
     3 C2A        -11.1170    -3.9700    26.8750 C.3          1 TDP557   0.0000
     4 N3'        -13.1180    -5.2410    26.4580 N.ar         1 TDP557   0.0000
     5 C4'        -13.9080    -6.3570    26.5210 C.ar         1 TDP557   0.0000
     6 N4'        -15.1240    -6.2800    25.9840 N.pl3        1 TDP557   0.0000
     7 C5'        -13.3920    -7.5260    27.1230 C.ar         1 TDP557   0.0000
     8 C6'        -12.1310    -7.4800    27.5590 C.ar         1 TDP557   0.0000
     9 C35        -14.2030    -8.7740    27.2800 C.3          1 TDP557   0.0000
    10 N3         -15.1490    -8.7480    28.4390 N.2          1 TDP557   1.0000
    11 C2         -16.3970    -8.5520    28.0510 C.2          1 TDP557   0.0000
    12 S1         -17.5510    -8.5070    29.2850 S.3          1 TDP557   0.0000
    13 C5         -16.3210    -8.7540    30.4340 C.2          1 TDP557   0.0000
    14 C4         -15.0640    -8.8280    29.8110 C.2          1 TDP557   0.0000
    15 C4A        -13.8240    -9.0340    30.6070 C.3          1 TDP557   0.0000
    16 C5A        -16.7000    -8.7860    31.8750 C.3          1 TDP557   0.0000
    17 C5B        -17.5470    -7.5750    32.2510 C.3          1 TDP557   0.0000
    18 O5G        -17.5310    -7.5660    33.6910 O.3          1 TDP557   0.0000
    19 P1         -18.5470    -6.7250    34.5450 P.3          1 TDP557   0.0000
    20 O11        -20.0030    -7.1530    34.0390 O.3          1 TDP557   0.0000
    21 O12        -18.2540    -7.1770    35.9340 O.co2        1 TDP557   0.0000
    22 O13        -18.3750    -5.2950    34.1130 O.co2        1 TDP557  -1.0000
    23 P2         -21.1680    -8.1250    34.6730 P.3          1 TDP557   0.0000
    24 O21        -22.2540    -7.0440    34.9000 O.co2        1 TDP557   0.0000
    25 O22        -21.5150    -9.0070    33.5560 O.co2        1 TDP557  -1.0000
    26 O23        -20.6790    -8.7360    35.9160 O.co2        1 TDP557  -1.0000
    27 H2A1       -11.6579    -3.2549    26.4323 H            1 TDP557   0.0000
    28 H2A2       -10.8934    -3.6892    27.8084 H            1 TDP557   0.0000
    29 H2A3       -10.2726    -4.1164    26.3597 H            1 TDP557   0.0000
    30 H4'1       -15.7327    -7.0730    26.0089 H            1 TDP557   0.0000
    31 H4'2       -15.4285    -5.4292    25.5558 H            1 TDP557   0.0000
    32 H6'        -11.7287    -8.3002    27.9657 H            1 TDP557   0.0000
    33 H7         -13.5753    -9.5425    27.4045 H            1 TDP557   0.0000
    34 H8         -14.7347    -8.9099    26.4440 H            1 TDP557   0.0000
    35 H9         -16.6429    -8.4376    27.0885 H            1 TDP557   0.0000
    36 H4A1       -14.0520    -9.0521    31.5805 H            1 TDP557   0.0000
    37 H4A2       -13.4016    -9.9024    30.3473 H            1 TDP557   0.0000
    38 H4A3       -13.1850    -8.2859    30.4282 H            1 TDP557   0.0000
    39 H5A1       -15.8686    -8.7875    32.4307 H            1 TDP557   0.0000
    40 H5A2       -17.2234    -9.6187    32.0559 H            1 TDP557   0.0000
    41 H5B1       -18.4808    -7.6748    31.9073 H            1 TDP557   0.0000
    42 H5B2       -17.1457    -6.7346    31.8866 H            1 TDP557   0.0000
    43 H1'        -10.4275    -6.3263    27.8057 H            1 TDP557   0.0000
@<TRIPOS>BOND
     1    1    2      ar
     2    1    8      ar
     3    2    3       1
     4    2    4      ar
     5    4    5      ar
     6    5    6       1
     7    5    7      ar
     8    7    8      ar
     9    7    9       1
    10    9   10       1
    11   10   11       2
    12   10   14       1
    13   11   12       1
    14   12   13       1
    15   13   14       2
    16   13   16       1
    17   14   15       1
    18   16   17       1
    19   17   18       1
    20   18   19       1
    21   19   20       1
    22   19   21      ar
    23   19   22      ar
    24   20   23       1
    25   23   24      ar
    26   23   25      ar
    27   23   26      ar
    28    3   27       1
    29    3   28       1
    30    3   29       1
    31    6   30       1
    32    6   31       1
    33    8   32       1
    34    9   33       1
    35    9   34       1
    36   11   35       1
    37   15   36       1
    38   15   37       1
    39   15   38       1
    40   16   39       1
    41   16   40       1
    42   17   41       1
    43   17   42       1
    44    1   43       1
@<TRIPOS>SUBSTRUCTURE
     1 TDP557      1 GROUP             4 B     TDP     0 **** TDP B 557
