@<TRIPOS>MOLECULE
2nvb_NAP_3_ligand
   73    77     1     0     0
SMALL
NO_CHARGES


@<TRIPOS>ATOM
     1 PA          70.3530    91.6560    22.2200 P.3          1 NAP2353   0.0000
     2 O1A         68.9080    91.5740    21.8840 O.co2        1 NAP2353   0.0000
     3 O2A         70.9610    92.9130    22.6540 O.co2        1 NAP2353  -1.0000
     4 O5B         71.1270    91.0160    20.9250 O.3          1 NAP2353   0.0000
     5 C5B         72.5460    91.0500    20.8830 C.3          1 NAP2353   0.0000
     6 C4B         73.0260    90.3850    19.6250 C.3          1 NAP2353   0.0000
     7 O4B         72.4430    91.0140    18.4660 O.3          1 NAP2353   0.0000
     8 C3B         74.4990    90.4780    19.4790 C.3          1 NAP2353   0.0000
     9 O3B         75.0640    89.3640    18.7650 O.3          1 NAP2353   0.0000
    10 C2B         74.5700    91.7650    18.6560 C.3          1 NAP2353   0.0000
    11 O2B         75.8230    92.1110    18.0220 O.3          1 NAP2353   0.0000
    12 C1B         73.5230    91.4560    17.6440 C.3          1 NAP2353   0.0000
    13 N9A         73.0780    92.6090    16.8090 N.pl3        1 NAP2353   0.0000
    14 C8A         72.7030    93.9120    17.1600 C.2          1 NAP2353   0.0000
    15 N7A         72.3810    94.6320    16.1220 N.2          1 NAP2353   0.0000
    16 C5A         72.5490    93.7780    15.0570 C.ar         1 NAP2353   0.0000
    17 C6A         72.3720    93.9380    13.6760 C.ar         1 NAP2353   0.0000
    18 N6A         71.9700    95.0840    13.1720 N.pl3        1 NAP2353   0.0000
    19 N1A         72.6280    92.8620    12.8510 N.ar         1 NAP2353   0.0000
    20 C2A         73.0410    91.6790    13.3650 C.ar         1 NAP2353   0.0000
    21 N3A         73.2360    91.4440    14.6630 N.ar         1 NAP2353   0.0000
    22 C4A         72.9660    92.5550    15.4570 C.ar         1 NAP2353   0.0000
    23 O3          70.5180    90.4490    23.3290 O.3          1 NAP2353   0.0000
    24 PN          69.5530    89.9020    24.5320 P.3          1 NAP2353   0.0000
    25 O1N         70.3960    89.6470    25.6900 O.co2        1 NAP2353   0.0000
    26 O2N         68.5750    91.0180    24.6720 O.co2        1 NAP2353  -1.0000
    27 O5D         68.6160    88.6520    24.1010 O.3          1 NAP2353   0.0000
    28 C5D         67.9960    88.5040    22.7780 C.3          1 NAP2353   0.0000
    29 C4D         66.5040    88.9790    22.6680 C.3          1 NAP2353   0.0000
    30 O4D         65.6170    87.8750    22.3030 O.3          1 NAP2353   0.0000
    31 C3D         65.8390    89.3330    23.9900 C.3          1 NAP2353   0.0000
    32 O3D         66.3120    90.4410    24.6990 O.3          1 NAP2353   0.0000
    33 C2D         64.4600    89.5840    23.5180 C.3          1 NAP2353   0.0000
    34 O2D         64.3180    90.6890    22.6380 O.3          1 NAP2353   0.0000
    35 C1D         64.2470    88.1970    22.8100 C.3          1 NAP2353   0.0000
    36 N1N         63.7530    87.2860    23.8920 N.ar         1 NAP2353   1.0000
    37 C2N         62.4190    87.5410    24.3800 C.ar         1 NAP2353   0.0000
    38 C3N         61.9360    86.6770    25.4410 C.ar         1 NAP2353   0.0000
    39 C7N         60.6030    86.7960    26.0590 C.2          1 NAP2353   0.0000
    40 O7N         60.2230    86.0370    26.9690 O.2          1 NAP2353   0.0000
    41 N7N         59.7400    87.7320    25.6660 N.am         1 NAP2353   0.0000
    42 C4N         62.7770    85.6830    25.9050 C.ar         1 NAP2353   0.0000
    43 C5N         64.0180    85.4670    25.4330 C.ar         1 NAP2353   0.0000
    44 C6N         64.5130    86.2550    24.4340 C.ar         1 NAP2353   0.0000
    45 P2B         77.0300    92.7910    18.8900 P.3          1 NAP2353   0.0000
    46 O1X         77.9720    91.6960    19.3220 O.co2        1 NAP2353   0.0000
    47 O2X         77.5750    93.7350    17.8850 O.co2        1 NAP2353  -1.0000
    48 O3X         76.3420    93.5140    20.0190 O.co2        1 NAP2353  -1.0000
    49 H5B1        72.9146    90.5666    21.6770 H            1 NAP2353   0.0000
    50 H5B2        72.8572    92.0002    20.8973 H            1 NAP2353   0.0000
    51 H4B         72.7595    89.4213    19.6426 H            1 NAP2353   0.0000
    52 H3B         74.9411    90.5958    20.3682 H            1 NAP2353   0.0000
    53 H5          76.0550    89.4796    18.6971 H            1 NAP2353   0.0000
    54 H2B         74.2648    92.5323    19.2200 H            1 NAP2353   0.0000
    55 H1B         73.8298    90.7083    17.0550 H            1 NAP2353   0.0000
    56 H8A         72.6844    94.2516    18.1004 H            1 NAP2353   0.0000
    57 H6A1        71.8489    95.1807    12.1841 H            1 NAP2353   0.0000
    58 H6A2        71.7854    95.8588    13.7766 H            1 NAP2353   0.0000
    59 H2A         73.2117    90.9289    12.7261 H            1 NAP2353   0.0000
    60 H5D1        68.0292    87.5359    22.5298 H            1 NAP2353   0.0000
    61 H5D2        68.5362    89.0344    22.1246 H            1 NAP2353   0.0000
    62 H4D         66.4191    89.7322    22.0158 H            1 NAP2353   0.0000
    63 H3D         65.8434    88.5313    24.5877 H            1 NAP2353   0.0000
    64 H16         67.2870    90.5639    24.5138 H            1 NAP2353   0.0000
    65 H2D         63.8379    89.6766    24.2955 H            1 NAP2353   0.0000
    66 H18         64.4337    90.3803    21.6939 H            1 NAP2353   0.0000
    67 H1D         63.5875    88.2664    22.0615 H            1 NAP2353   0.0000
    68 H2N         61.8552    88.2770    24.0053 H            1 NAP2353   0.0000
    69 H7N1        58.8405    87.7959    26.0982 H            1 NAP2353   0.0000
    70 H7N2        59.9918    88.3706    24.9388 H            1 NAP2353   0.0000
    71 H4N         62.4425    85.0883    26.6360 H            1 NAP2353   0.0000
    72 H5N         64.5772    84.7303    25.8133 H            1 NAP2353   0.0000
    73 H6N         65.4359    86.0884    24.0868 H            1 NAP2353   0.0000
@<TRIPOS>BOND
     1    1    2      ar
     2    1    3      ar
     3    1    4       1
     4    1   23       1
     5    4    5       1
     6    5    6       1
     7    6    7       1
     8    6    8       1
     9    7   12       1
    10    8    9       1
    11    8   10       1
    12   10   11       1
    13   10   12       1
    14   11   45       1
    15   12   13       1
    16   13   14       1
    17   13   22       1
    18   14   15       2
    19   15   16       1
    20   16   17      ar
    21   16   22      ar
    22   17   18       1
    23   17   19      ar
    24   19   20      ar
    25   20   21      ar
    26   21   22      ar
    27   23   24       1
    28   24   25      ar
    29   24   26      ar
    30   24   27       1
    31   27   28       1
    32   28   29       1
    33   29   30       1
    34   29   31       1
    35   30   35       1
    36   31   32       1
    37   31   33       1
    38   33   34       1
    39   33   35       1
    40   35   36       1
    41   36   37      ar
    42   36   44      ar
    43   37   38      ar
    44   38   39       1
    45   38   42      ar
    46   39   40       2
    47   39   41      am
    48   42   43      ar
    49   43   44      ar
    50   45   46      ar
    51   45   47      ar
    52   45   48      ar
    53   43   72       1
    54    5   49       1
    55    5   50       1
    56    6   51       1
    57    8   52       1
    58    9   53       1
    59   10   54       1
    60   12   55       1
    61   14   56       1
    62   18   57       1
    63   18   58       1
    64   20   59       1
    65   44   73       1
    66   28   60       1
    67   28   61       1
    68   29   62       1
    69   31   63       1
    70   32   64       1
    71   33   65       1
    72   34   66       1
    73   35   67       1
    74   37   68       1
    75   41   69       1
    76   41   70       1
    77   42   71       1
@<TRIPOS>SUBSTRUCTURE
     1 NAP2353     1 GROUP             4 C     NAP     0 **** NAP C2353
