@<TRIPOS>MOLECULE
4uzq_SER_PAM_1_ligand
   12    11     1     0     0
SMALL
NO_CHARGES


@<TRIPOS>ATOM
     1 N           12.1070    44.5960    25.8830 N.4          1 SER206   1.0000
     2 CA          12.7060    43.6520    24.8600 C.3          1 SER206   0.0000
     3 C           12.1890    43.8580    23.4300 C.2          1 SER206   0.0000
     4 O           11.9360    42.8640    22.7100 O.2          1 SER206   0.0000
     5 CB          12.4260    42.1850    25.2460 C.3          1 SER206   0.0000
     6 OG          13.1390    41.7300    26.4020 O.3          1 SER206   0.0000
     7 H1          12.8326    45.1516    26.2889 H            1 SER206   0.0000
     8 H2          11.4407    45.1928    25.4359 H            1 SER206   0.0000
     9 HA          13.6967    43.7880    24.8546 H            1 SER206   0.0000
    10 H4          12.0544    44.7826    23.0737 H            1 SER206   0.0000
    11 HB1         12.6809    41.6042    24.4729 H            1 SER206   0.0000
    12 HB2         11.4468    42.0904    25.4254 H            1 SER206   0.0000
@<TRIPOS>BOND
     1    1    2       1
     2    2    5       1
     3    2    3       1
     4    5    6       1
     5    3    4       2
     6    1    7       1
     7    1    8       1
     8    2    9       1
     9    3   10       1
    10    5   11       1
    11    5   12       1
@<TRIPOS>SUBSTRUCTURE
     1 SER206      1 RESIDUE           4 B     SER     0 **** SER B 206
