@<TRIPOS>MOLECULE
3gon_ANP_1_ligand
   44    46     1     0     0
SMALL
NO_CHARGES


@<TRIPOS>ATOM
     1 PG          15.0240    27.9590     0.7410 P.3          1 ANP500   0.0000
     2 O1G         14.5680    26.5620     0.5710 O.co2        1 ANP500   0.0000
     3 O2G         15.5250    28.6020    -0.6460 O.co2        1 ANP500  -1.0000
     4 O3G         16.2750    28.0490     1.7510 O.co2        1 ANP500  -1.0000
     5 PB          14.1210    30.5060     0.9470 P.3          1 ANP500   0.0000
     6 O1B         13.4350    31.3610     1.9380 O.co2        1 ANP500   0.0000
     7 O2B         15.5690    30.6990     0.7030 O.co2        1 ANP500  -1.0000
     8 N3B         13.8610    28.9430     1.3060 N.3          1 ANP500   0.0000
     9 PA          13.4320    32.0860    -1.2900 P.3          1 ANP500   0.0000
    10 O1A         14.6990    32.1130    -2.0520 O.co2        1 ANP500   0.0000
    11 O2A         12.1420    32.2390    -2.0060 O.co2        1 ANP500  -1.0000
    12 O3A         13.3450    30.7080    -0.4490 O.3          1 ANP500   0.0000
    13 O5'         13.4790    33.2550    -0.1720 O.3          1 ANP500   0.0000
    14 C5'         12.2620    33.9040     0.1780 C.3          1 ANP500   0.0000
    15 C4'         12.3050    35.4030    -0.0260 C.3          1 ANP500   0.0000
    16 O4'         13.6450    35.9570     0.0320 O.3          1 ANP500   0.0000
    17 C3'         11.7780    35.8940    -1.3590 C.3          1 ANP500   0.0000
    18 O3'         10.3720    35.7540    -1.4410 O.3          1 ANP500   0.0000
    19 C2'         12.2660    37.3390    -1.2830 C.3          1 ANP500   0.0000
    20 O2'         11.5740    38.0180    -0.2490 O.3          1 ANP500   0.0000
    21 C1'         13.6920    37.1150    -0.7760 C.3          1 ANP500   0.0000
    22 N9          14.6380    36.8850    -1.8930 N.pl3        1 ANP500   0.0000
    23 C8          15.1780    35.7020    -2.1940 C.2          1 ANP500   0.0000
    24 N7          15.9500    35.8120    -3.2640 N.2          1 ANP500   0.0000
    25 C5          15.9020    37.0840    -3.6510 C.ar         1 ANP500   0.0000
    26 C6          16.4980    37.7730    -4.6850 C.ar         1 ANP500   0.0000
    27 N6          17.2890    37.0770    -5.5110 N.pl3        1 ANP500   0.0000
    28 N1          16.2690    39.0800    -4.8230 N.ar         1 ANP500   0.0000
    29 C2          15.4760    39.7210    -3.9760 C.ar         1 ANP500   0.0000
    30 N3          14.8800    39.0900    -2.9700 N.ar         1 ANP500   0.0000
    31 C4          15.0670    37.7880    -2.7790 C.ar         1 ANP500   0.0000
    32 H3B         13.8183    28.8474     2.3005 H            1 ANP500   0.0000
    33 H5'1        12.0695    33.7199     1.1419 H            1 ANP500   0.0000
    34 H5'2        11.5274    33.5275    -0.3864 H            1 ANP500   0.0000
    35 H4'         11.7622    35.8295     0.6975 H            1 ANP500   0.0000
    36 H3'         12.2240    35.4114    -2.1128 H            1 ANP500   0.0000
    37 H6          10.0553    36.0856    -2.3297 H            1 ANP500   0.0000
    38 H2'         12.2294    37.8151    -2.1617 H            1 ANP500   0.0000
    39 H8          11.8937    38.9642    -0.1994 H            1 ANP500   0.0000
    40 H1'         13.9890    37.8999    -0.2322 H            1 ANP500   0.0000
    41 H10         15.0221    34.8554    -1.6851 H            1 ANP500   0.0000
    42 H11         17.7419    37.5366    -6.2750 H            1 ANP500   0.0000
    43 H12         17.4270    36.0975    -5.3640 H            1 ANP500   0.0000
    44 H13         15.3228    40.7018    -4.0969 H            1 ANP500   0.0000
@<TRIPOS>BOND
     1    1    2      ar
     2    1    3      ar
     3    1    4      ar
     4    1    8       1
     5    5    6      ar
     6    5    7      ar
     7    5    8       1
     8    5   12       1
     9    9   10      ar
    10    9   11      ar
    11    9   12       1
    12    9   13       1
    13   13   14       1
    14   14   15       1
    15   15   16       1
    16   15   17       1
    17   16   21       1
    18   17   18       1
    19   17   19       1
    20   19   20       1
    21   19   21       1
    22   21   22       1
    23   22   23       1
    24   22   31       1
    25   23   24       2
    26   24   25       1
    27   25   26      ar
    28   25   31      ar
    29   26   27       1
    30   26   28      ar
    31   28   29      ar
    32   29   30      ar
    33   30   31      ar
    34   29   44       1
    35   27   43       1
    36   27   42       1
    37    8   32       1
    38   23   41       1
    39   14   33       1
    40   14   34       1
    41   15   35       1
    42   17   36       1
    43   18   37       1
    44   19   38       1
    45   20   39       1
    46   21   40       1
@<TRIPOS>SUBSTRUCTURE
     1 ANP500      1 GROUP             4 A     ANP     0 **** ANP A 500
