@<TRIPOS>MOLECULE
2i19_1BY_2_ligand
   25    25     1     0     0
SMALL
NO_CHARGES


@<TRIPOS>ATOM
     1 C5          16.9280    19.3190    41.9220 C.ar         1 1BY4001   0.0000
     2 C4          17.8790    18.2840    41.5000 C.ar         1 1BY4001   0.0000
     3 C6          15.6260    19.0290    41.9920 C.ar         1 1BY4001   0.0000
     4 C7          15.1900    17.6850    41.6060 C.ar         1 1BY4001   0.0000
     5 N2          16.0320    16.8140    41.2180 N.ar         1 1BY4001   0.0000
     6 C3          17.4560    17.0600    41.1440 C.ar         1 1BY4001   0.0000
     7 N1          18.3620    16.1980    40.7240 N.pl3        1 1BY4001   0.0000
     8 C2          19.7680    16.6100    40.6860 C.3          1 1BY4001   0.0000
     9 C1          20.6830    15.4330    41.0730 C.3          1 1BY4001   0.0000
    10 P1          22.2950    15.5420    40.2240 P.3          1 1BY4001   0.0000
    11 O1          22.0070    15.6030    38.7540 O.co2        1 1BY4001   0.0000
    12 O2          23.0310    16.7580    40.6510 O.co2        1 1BY4001  -1.0000
    13 O3          23.1340    14.3310    40.4400 O.co2        1 1BY4001  -1.0000
    14 P2          20.7600    15.1860    42.8750 P.3          1 1BY4001   0.0000
    15 O4          21.0610    16.4600    43.5940 O.co2        1 1BY4001   0.0000
    16 O5          19.4470    14.6460    43.3570 O.co2        1 1BY4001  -1.0000
    17 O6          21.8430    14.2080    43.2140 O.co2        1 1BY4001  -1.0000
    18 H1          17.2527    20.2355    42.1557 H            1 1BY4001   0.0000
    19 H2          18.8566    18.4932    41.4772 H            1 1BY4001   0.0000
    20 H3          14.9649    19.7129    42.3005 H            1 1BY4001   0.0000
    21 H4          14.2191    17.4494    41.6480 H            1 1BY4001   0.0000
    22 H5          18.0939    15.2786    40.4363 H            1 1BY4001   0.0000
    23 H6          19.9085    17.3621    41.3299 H            1 1BY4001   0.0000
    24 H7          19.9970    16.9153    39.7617 H            1 1BY4001   0.0000
    25 H8          20.2398    14.6147    40.7070 H            1 1BY4001   0.0000
@<TRIPOS>BOND
     1    1    2      ar
     2    1    3      ar
     3    2    6      ar
     4    3    4      ar
     5    4    5      ar
     6    5    6      ar
     7    6    7       1
     8    7    8       1
     9    8    9       1
    10    9   10       1
    11    9   14       1
    12   10   11      ar
    13   10   12      ar
    14   10   13      ar
    15   14   15      ar
    16   14   16      ar
    17   14   17      ar
    18    1   18       1
    19    2   19       1
    20    3   20       1
    21    4   21       1
    22    7   22       1
    23    8   23       1
    24    8   24       1
    25    9   25       1
@<TRIPOS>SUBSTRUCTURE
     1 1BY4001     1 GROUP             4 B     1BY     0 **** 1BY B4001
