@<TRIPOS>MOLECULE
3atz_HBA_1_ligand
   14    14     1     0     0
SMALL
NO_CHARGES


@<TRIPOS>ATOM
     1 C1'          1.2590     9.4290    56.5710 C.2          1 HBA600   0.0000
     2 O1'          1.9430    10.3780    56.2610 O.2          1 HBA600   0.0000
     3 C1           1.8700     8.1150    56.8160 C.ar         1 HBA600   0.0000
     4 C2           1.0430     7.0220    57.1740 C.ar         1 HBA600   0.0000
     5 C3           1.6010     5.7650    57.4050 C.ar         1 HBA600   0.0000
     6 C4           2.9990     5.5690    57.2820 C.ar         1 HBA600   0.0000
     7 C5           3.8410     6.6590    56.9270 C.ar         1 HBA600   0.0000
     8 C6           3.2880     7.9240    56.6960 C.ar         1 HBA600   0.0000
     9 O4           3.5230     4.3300    57.4930 O.3          1 HBA600  -1.0000
    10 H1'          0.2693     9.5399    56.6613 H            1 HBA600   0.0000
    11 H2           0.0554     7.1523    57.2614 H            1 HBA600   0.0000
    12 H3           1.0116     4.9981    57.6587 H            1 HBA600   0.0000
    13 H4           4.8279     6.5216    56.8425 H            1 HBA600   0.0000
    14 H5           3.8785     8.6921    56.4482 H            1 HBA600   0.0000
@<TRIPOS>BOND
     1    1    2       2
     2    1    3       1
     3    3    4      ar
     4    3    8      ar
     5    4    5      ar
     6    5    6      ar
     7    6    7      ar
     8    6    9       1
     9    7    8      ar
    10    1   10       1
    11    4   11       1
    12    5   12       1
    13    7   13       1
    14    8   14       1
@<TRIPOS>SUBSTRUCTURE
     1 HBA600      1 GROUP             4 A     HBA     0 **** HBA A 600
