@<TRIPOS>MOLECULE
4ffm_ADP_1_ligand
   39    41     1     0     0
SMALL
NO_CHARGES


@<TRIPOS>ATOM
     1 PB          14.8770    12.7870    33.0180 P.3          1 ADP902   0.0000
     2 O1B         15.5780    12.2380    31.7830 O.co2        1 ADP902   0.0000
     3 O2B         14.0490    13.9550    32.5200 O.co2        1 ADP902  -1.0000
     4 O3B         14.0770    12.1180    34.0520 O.co2        1 ADP902  -1.0000
     5 PA          17.3610    13.6040    34.3260 P.3          1 ADP902   0.0000
     6 O1A         18.2230    12.6170    33.7000 O.co2        1 ADP902   0.0000
     7 O2A         17.4750    13.5070    35.8280 O.co2        1 ADP902  -1.0000
     8 O3A         15.8320    13.8210    33.8410 O.3          1 ADP902   0.0000
     9 O5'         18.0380    15.0420    33.9730 O.3          1 ADP902   0.0000
    10 C5'         18.2650    15.4990    32.6270 C.3          1 ADP902   0.0000
    11 C4'         19.6940    15.9970    32.4440 C.3          1 ADP902   0.0000
    12 O4'         19.9730    17.0670    33.3520 O.3          1 ADP902   0.0000
    13 C3'         20.7420    14.9230    32.7510 C.3          1 ADP902   0.0000
    14 O3'         21.0270    14.0370    31.6540 O.3          1 ADP902   0.0000
    15 C2'         21.9320    15.7250    33.1830 C.3          1 ADP902   0.0000
    16 O2'         22.5690    16.1840    31.9910 O.3          1 ADP902   0.0000
    17 C1'         21.2990    16.9150    33.8700 C.3          1 ADP902   0.0000
    18 N9          21.1840    16.7910    35.3400 N.pl3        1 ADP902   0.0000
    19 C8          20.1360    16.2320    35.9960 C.2          1 ADP902   0.0000
    20 N7          20.3400    16.3430    37.3280 N.2          1 ADP902   0.0000
    21 C5          21.5320    16.9510    37.5170 C.ar         1 ADP902   0.0000
    22 C6          22.3330    17.3640    38.6820 C.ar         1 ADP902   0.0000
    23 N6          21.9280    17.1460    39.9520 N.pl3        1 ADP902   0.0000
    24 N1          23.4980    17.9850    38.4280 N.ar         1 ADP902   0.0000
    25 C2          23.9720    18.2310    37.2000 C.ar         1 ADP902   0.0000
    26 N3          23.3010    17.8970    36.0720 N.ar         1 ADP902   0.0000
    27 C4          22.0980    17.2550    36.1940 C.ar         1 ADP902   0.0000
    28 H5'1        17.6315    16.2461    32.4256 H            1 ADP902   0.0000
    29 H5'2        18.1003    14.7425    31.9941 H            1 ADP902   0.0000
    30 H4'         19.8149    16.3192    31.5051 H            1 ADP902   0.0000
    31 H3'         20.4242    14.3787    33.5274 H            1 ADP902   0.0000
    32 H5          21.9742    13.7225    31.7170 H            1 ADP902   0.0000
    33 H2'         22.5490    15.2137    33.7812 H            1 ADP902   0.0000
    34 H7          21.9301    16.7477    31.4675 H            1 ADP902   0.0000
    35 H1'         21.8286    17.7351    33.6534 H            1 ADP902   0.0000
    36 H9          19.3409    15.8065    35.5639 H            1 ADP902   0.0000
    37 H10         22.5003    17.4414    40.7170 H            1 ADP902   0.0000
    38 H11         21.0559    16.6892    40.1272 H            1 ADP902   0.0000
    39 H12         24.8606    18.6812    37.1120 H            1 ADP902   0.0000
@<TRIPOS>BOND
     1    1    2      ar
     2    1    3      ar
     3    1    4      ar
     4    1    8       1
     5    5    6      ar
     6    5    7      ar
     7    5    8       1
     8    5    9       1
     9    9   10       1
    10   10   11       1
    11   11   12       1
    12   11   13       1
    13   12   17       1
    14   13   14       1
    15   13   15       1
    16   15   16       1
    17   15   17       1
    18   17   18       1
    19   18   19       1
    20   18   27       1
    21   19   20       2
    22   20   21       1
    23   21   22      ar
    24   21   27      ar
    25   22   23       1
    26   22   24      ar
    27   24   25      ar
    28   25   26      ar
    29   26   27      ar
    30   25   39       1
    31   23   38       1
    32   23   37       1
    33   10   28       1
    34   10   29       1
    35   11   30       1
    36   13   31       1
    37   14   32       1
    38   15   33       1
    39   16   34       1
    40   17   35       1
    41   19   36       1
@<TRIPOS>SUBSTRUCTURE
     1 ADP902      1 GROUP             4 A     ADP     0 **** ADP A 902
