@<TRIPOS>MOLECULE
3fri_SAH_1_ligand
   46    48     1     0     0
SMALL
NO_CHARGES


@<TRIPOS>ATOM
     1 N           11.8800    19.8290    31.8410 N.4          1 SAH260   1.0000
     2 CA          10.7890    20.6840    32.3390 C.3          1 SAH260   0.0000
     3 CB          10.2060    21.5780    31.2220 C.3          1 SAH260   0.0000
     4 CG           9.7220    20.7480    30.0150 C.3          1 SAH260   0.0000
     5 SD           9.0020    21.8480    28.7580 S.3          1 SAH260   0.0000
     6 C            9.6790    19.8320    32.9100 C.2          1 SAH260   0.0000
     7 O            9.5470    18.6820    32.5500 O.co2        1 SAH260   0.0000
     8 OXT          8.8220    20.3640    33.7940 O.co2        1 SAH260  -1.0000
     9 C5'         10.3800    22.0230    27.5940 C.3          1 SAH260   0.0000
    10 C4'         11.4160    23.0380    28.1040 C.3          1 SAH260   0.0000
    11 O4'         12.5400    23.0310    27.2180 O.3          1 SAH260   0.0000
    12 C3'         10.8660    24.4850    28.1320 C.3          1 SAH260   0.0000
    13 O3'         11.0340    25.0410    29.4460 O.3          1 SAH260   0.0000
    14 C2'         11.7110    25.2170    27.0580 C.3          1 SAH260   0.0000
    15 O2'         11.9210    26.6030    27.3750 O.3          1 SAH260   0.0000
    16 C1'         13.0070    24.3890    27.0680 C.3          1 SAH260   0.0000
    17 N9          13.7860    24.4540    25.8230 N.pl3        1 SAH260   0.0000
    18 C8          13.3230    24.4560    24.5290 C.2          1 SAH260   0.0000
    19 N7          14.3280    24.5010    23.6980 N.2          1 SAH260   0.0000
    20 C5          15.4850    24.5300    24.3980 C.ar         1 SAH260   0.0000
    21 C6          16.8640    24.5750    24.0660 C.ar         1 SAH260   0.0000
    22 N6          17.2700    24.5970    22.7380 N.pl3        1 SAH260   0.0000
    23 N1          17.7770    24.5950    25.0660 N.ar         1 SAH260   0.0000
    24 C2          17.4100    24.5690    26.3560 C.ar         1 SAH260   0.0000
    25 N3          16.1240    24.5230    26.7070 N.ar         1 SAH260   0.0000
    26 C4          15.1470    24.5000    25.7740 C.ar         1 SAH260   0.0000
    27 H1          12.2310    19.2666    32.5897 H            1 SAH260   0.0000
    28 H2          11.5338    19.2369    31.1133 H            1 SAH260   0.0000
    29 HA          11.1478    21.2711    33.0647 H            1 SAH260   0.0000
    30 HB1         10.9138    22.2138    30.9142 H            1 SAH260   0.0000
    31 HB2          9.4326    22.0934    31.5910 H            1 SAH260   0.0000
    32 HG1          9.0298    20.0933    30.3187 H            1 SAH260   0.0000
    33 HG2         10.4967    20.2546    29.6196 H            1 SAH260   0.0000
    34 H5'1        10.0246    22.3350    26.7129 H            1 SAH260   0.0000
    35 H5'2        10.8239    21.1344    27.4786 H            1 SAH260   0.0000
    36 H4'         11.7140    22.7771    29.0222 H            1 SAH260   0.0000
    37 H3'          9.8996    24.4921    27.8750 H            1 SAH260   0.0000
    38 H12         12.0057    25.0509    29.6820 H            1 SAH260   0.0000
    39 H2'         11.2661    25.1378    26.1659 H            1 SAH260   0.0000
    40 H14         12.7576    26.6985    27.9144 H            1 SAH260   0.0000
    41 H1'         13.5774    24.6475    27.8476 H            1 SAH260   0.0000
    42 H16         12.3592    24.4272    24.2638 H            1 SAH260   0.0000
    43 H17         18.2439    24.6287    22.5134 H            1 SAH260   0.0000
    44 H18         16.5884    24.5811    22.0064 H            1 SAH260   0.0000
    45 H19         18.1130    24.5844    27.0671 H            1 SAH260   0.0000
    46 H20         12.6159    20.4030    31.4819 H            1 SAH260   0.0000
@<TRIPOS>BOND
     1    1    2       1
     2    2    3       1
     3    2    6       1
     4    3    4       1
     5    4    5       1
     6    5    9       1
     7    6    7      ar
     8    6    8      ar
     9    9   10       1
    10   10   11       1
    11   10   12       1
    12   11   16       1
    13   12   13       1
    14   12   14       1
    15   14   15       1
    16   14   16       1
    17   16   17       1
    18   17   18       1
    19   17   26       1
    20   18   19       2
    21   19   20       1
    22   20   21      ar
    23   20   26      ar
    24   21   22       1
    25   21   23      ar
    26   23   24      ar
    27   24   25      ar
    28   25   26      ar
    29    1   27       1
    30    1   28       1
    31    2   29       1
    32    3   30       1
    33    3   31       1
    34    4   32       1
    35    4   33       1
    36    1   46       1
    37    9   34       1
    38    9   35       1
    39   10   36       1
    40   12   37       1
    41   13   38       1
    42   14   39       1
    43   15   40       1
    44   16   41       1
    45   18   42       1
    46   22   43       1
    47   22   44       1
    48   24   45       1
@<TRIPOS>SUBSTRUCTURE
     1 SAH260      1 GROUP             4 A     SAH     0 **** SAH A 260
