@<TRIPOS>MOLECULE
3nbz_GTP_2_ligand
   44    46     1     0     0
SMALL
NO_CHARGES


@<TRIPOS>ATOM
     1 PG           0.0820  -109.6370    38.9180 P.3          1 GTP217   0.0000
     2 O1G         -1.2620  -110.3300    38.9990 O.co2        1 GTP217   0.0000
     3 O2G         -0.0560  -108.1880    38.5280 O.co2        1 GTP217  -1.0000
     4 O3G          0.7530  -109.6900    40.2670 O.co2        1 GTP217  -1.0000
     5 O3B          0.9950  -110.3640    37.8120 O.3          1 GTP217   0.0000
     6 PB           0.5940  -111.7850    37.1850 P.3          1 GTP217   0.0000
     7 O1B         -0.6440  -112.3630    37.8430 O.co2        1 GTP217   0.0000
     8 O2B          1.7780  -112.7080    37.3080 O.co2        1 GTP217  -1.0000
     9 O3A          0.2740  -111.4590    35.6460 O.3          1 GTP217   0.0000
    10 PA          -0.7620  -112.3950    34.8560 P.3          1 GTP217   0.0000
    11 O1A         -2.1810  -112.0410    35.2730 O.co2        1 GTP217   0.0000
    12 O2A         -0.4390  -113.8450    35.1290 O.co2        1 GTP217  -1.0000
    13 O5'         -0.5560  -112.0300    33.2980 O.3          1 GTP217   0.0000
    14 C5'          0.6840  -111.5600    32.8240 C.3          1 GTP217   0.0000
    15 C4'          0.6440  -111.3570    31.3140 C.3          1 GTP217   0.0000
    16 O4'          1.6300  -112.1730    30.7200 O.3          1 GTP217   0.0000
    17 C3'         -0.6690  -111.7870    30.7030 C.3          1 GTP217   0.0000
    18 O3'         -0.9980  -110.8530    29.7040 O.3          1 GTP217   0.0000
    19 C2'         -0.3680  -113.1150    30.0520 C.3          1 GTP217   0.0000
    20 O2'         -1.1420  -113.2780    28.8930 O.3          1 GTP217   0.0000
    21 C1'          1.1000  -112.9980    29.7110 C.3          1 GTP217   0.0000
    22 N9           1.7580  -114.3120    29.7960 N.pl3        1 GTP217   0.0000
    23 C8           1.7540  -115.1750    30.8590 C.2          1 GTP217   0.0000
    24 N7           2.4840  -116.2680    30.5380 N.2          1 GTP217   0.0000
    25 C5           2.9630  -116.1160    29.2860 C.2          1 GTP217   0.0000
    26 C6           3.7600  -116.9180    28.4700 C.2          1 GTP217   0.0000
    27 O6           4.1740  -118.0120    28.8580 O.2          1 GTP217   0.0000
    28 N1           4.0900  -116.4750    27.2080 N.pl3        1 GTP217   0.0000
    29 C2           3.6350  -115.2530    26.7640 C.2          1 GTP217   0.0000
    30 N2           3.9520  -114.8220    25.5510 N.pl3        1 GTP217   0.0000
    31 N3           2.8530  -114.4680    27.5770 N.2          1 GTP217   0.0000
    32 C4           2.5170  -114.8890    28.8150 C.2          1 GTP217   0.0000
    33 H5'1         1.3945  -112.2276    33.0464 H            1 GTP217   0.0000
    34 H5'2         0.8953  -110.6885    33.2665 H            1 GTP217   0.0000
    35 H4'          0.8215  -110.3973    31.0959 H            1 GTP217   0.0000
    36 H3'         -1.3908  -111.8654    31.3906 H            1 GTP217   0.0000
    37 H5          -1.0677  -111.3190    28.8220 H            1 GTP217   0.0000
    38 H2'         -0.5247  -113.8673    30.6919 H            1 GTP217   0.0000
    39 H7          -2.0065  -113.7217    29.1292 H            1 GTP217   0.0000
    40 H1'          1.2281  -112.5891    28.8075 H            1 GTP217   0.0000
    41 H9           1.2877  -115.0224    31.7303 H            1 GTP217   0.0000
    42 H10          4.6607  -117.0414    26.6134 H            1 GTP217   0.0000
    43 H11          3.6193  -113.9342    25.2330 H            1 GTP217   0.0000
    44 H12          4.5238  -115.3847    24.9540 H            1 GTP217   0.0000
@<TRIPOS>BOND
     1    1    2      ar
     2    1    3      ar
     3    1    4      ar
     4    1    5       1
     5    5    6       1
     6    6    7      ar
     7    6    8      ar
     8    6    9       1
     9    9   10       1
    10   10   11      ar
    11   10   12      ar
    12   10   13       1
    13   13   14       1
    14   14   15       1
    15   15   16       1
    16   15   17       1
    17   16   21       1
    18   17   18       1
    19   17   19       1
    20   19   20       1
    21   19   21       1
    22   21   22       1
    23   22   23       1
    24   22   32       1
    25   23   24       2
    26   24   25       1
    27   25   26       1
    28   25   32       2
    29   26   27       2
    30   26   28       1
    31   28   29       1
    32   29   30       1
    33   29   31       2
    34   31   32       1
    35   30   44       1
    36   30   43       1
    37   28   42       1
    38   23   41       1
    39   14   33       1
    40   14   34       1
    41   15   35       1
    42   17   36       1
    43   18   37       1
    44   19   38       1
    45   20   39       1
    46   21   40       1
@<TRIPOS>SUBSTRUCTURE
     1 GTP217      1 GROUP             4 F     GTP     0 **** GTP F 217
