@<TRIPOS>MOLECULE
1nj5_P5A_1_ligand
   53    56     1     0     0
SMALL
NO_CHARGES


@<TRIPOS>ATOM
     1 CB         -33.8120   -78.6330   -41.0350 C.3          1 P5A510   0.0000
     2 CG         -34.6990   -77.7560   -40.1660 C.3          1 P5A510   0.0000
     3 C          -34.2250   -80.8960   -39.9730 C.2          1 P5A510   0.0000
     4 O          -35.0350   -81.1790   -39.0820 O.2          1 P5A510   0.0000
     5 N          -36.0370   -79.5520   -40.9990 N.4          1 P5A510   1.0000
     6 CD         -36.1590   -78.1620   -40.5100 C.3          1 P5A510   0.0000
     7 CA         -34.6190   -79.9300   -41.1030 C.3          1 P5A510   0.0000
     8 N3S        -32.9820   -81.3910   -40.0110 N.am         1 P5A510   0.0000
     9 S          -32.3650   -82.3860   -38.9380 S.o2         1 P5A510   0.0000
    10 O1S        -33.2810   -83.5300   -38.7480 O.2          1 P5A510   0.0000
    11 O2S        -30.9780   -82.6450   -39.4540 O.2          1 P5A510   0.0000
    12 O5'        -32.2310   -81.5750   -37.5700 O.3          1 P5A510   0.0000
    13 C5'        -31.4920   -80.3370   -37.5110 C.3          1 P5A510   0.0000
    14 C4'        -30.3650   -80.3880   -36.4960 C.3          1 P5A510   0.0000
    15 O4'        -30.9010   -80.6470   -35.1770 O.3          1 P5A510   0.0000
    16 C1'        -29.9890   -81.4020   -34.4060 C.3          1 P5A510   0.0000
    17 N9         -30.6730   -82.5670   -33.8150 N.pl3        1 P5A510   0.0000
    18 C4         -30.7710   -82.8100   -32.4510 C.ar         1 P5A510   0.0000
    19 N3         -30.2670   -82.0510   -31.4230 N.ar         1 P5A510   0.0000
    20 C2         -30.5510   -82.5820   -30.2240 C.ar         1 P5A510   0.0000
    21 N1         -31.2470   -83.7160   -29.9550 N.ar         1 P5A510   0.0000
    22 C6         -31.7410   -84.4570   -30.9940 C.ar         1 P5A510   0.0000
    23 N6         -32.4220   -85.5610   -30.7000 N.pl3        1 P5A510   0.0000
    24 C5         -31.5060   -83.9940   -32.3310 C.ar         1 P5A510   0.0000
    25 N7         -31.8500   -84.4870   -33.5800 N.2          1 P5A510   1.0000
    26 C8         -31.3400   -83.6100   -34.4210 C.2          1 P5A510   0.0000
    27 C2'        -28.7710   -81.6700   -35.2950 C.3          1 P5A510   0.0000
    28 O2'        -27.7780   -80.7320   -34.9190 O.3          1 P5A510   0.0000
    29 C3'        -29.3420   -81.4940   -36.6970 C.3          1 P5A510   0.0000
    30 O3'        -28.3540   -81.0540   -37.6250 O.3          1 P5A510   0.0000
    31 HB1        -32.9194   -78.7820   -40.6095 H            1 P5A510   0.0000
    32 HB2        -33.6858   -78.2352   -41.9438 H            1 P5A510   0.0000
    33 HG1        -34.5471   -76.7901   -40.3759 H            1 P5A510   0.0000
    34 HG2        -34.5104   -77.9204   -39.1978 H            1 P5A510   0.0000
    35 H5         -36.4653   -79.6243   -41.8997 H            1 P5A510   0.0000
    36 HD1        -36.5356   -77.5670   -41.2200 H            1 P5A510   0.0000
    37 HD2        -36.7404   -78.1206   -39.6975 H            1 P5A510   0.0000
    38 HA         -34.4593   -80.3721   -41.9856 H            1 P5A510   0.0000
    39 H3S        -32.3973   -81.1131   -40.7731 H            1 P5A510   0.0000
    40 H5'1       -32.1189   -79.5998   -37.2590 H            1 P5A510   0.0000
    41 H5'2       -31.1039   -80.1506   -38.4136 H            1 P5A510   0.0000
    42 H4'        -29.8936   -79.5061   -36.4884 H            1 P5A510   0.0000
    43 H1'        -29.6847   -80.8209   -33.6512 H            1 P5A510   0.0000
    44 H14        -30.2074   -82.0802   -29.4302 H            1 P5A510   0.0000
    45 H15        -32.7976   -86.1271   -31.4338 H            1 P5A510   0.0000
    46 H16        -32.5584   -85.8250   -29.7452 H            1 P5A510   0.0000
    47 H17        -31.4292   -83.6939   -35.4135 H            1 P5A510   0.0000
    48 H2'        -28.4394   -82.6044   -35.1650 H            1 P5A510   0.0000
    49 H19        -26.8719   -81.1269   -35.0709 H            1 P5A510   0.0000
    50 H3'        -29.7811   -82.3350   -37.0131 H            1 P5A510   0.0000
    51 H21        -27.6782   -81.7784   -37.7608 H            1 P5A510   0.0000
    52 H22        -36.4975   -80.1686   -40.3605 H            1 P5A510   0.0000
    53 H23        -32.3660   -85.3166   -33.7935 H            1 P5A510   0.0000
@<TRIPOS>BOND
     1    1    2       1
     2    1    7       1
     3    2    6       1
     4    3    4       2
     5    3    7       1
     6    3    8      am
     7    5    6       1
     8    5    7       1
     9    8    9       1
    10    9   10       2
    11    9   11       2
    12    9   12       1
    13   12   13       1
    14   13   14       1
    15   14   15       1
    16   14   29       1
    17   15   16       1
    18   16   17       1
    19   16   27       1
    20   17   18       1
    21   17   26       1
    22   18   19      ar
    23   18   24      ar
    24   19   20      ar
    25   20   21      ar
    26   21   22      ar
    27   22   23       1
    28   22   24      ar
    29   24   25       1
    30   25   26       2
    31   27   28       1
    32   27   29       1
    33   29   30       1
    34    1   31       1
    35    1   32       1
    36    2   33       1
    37    2   34       1
    38    5   35       1
    39    6   36       1
    40    6   37       1
    41    7   38       1
    42    8   39       1
    43   13   40       1
    44   13   41       1
    45   14   42       1
    46   16   43       1
    47   20   44       1
    48   23   45       1
    49   23   46       1
    50   26   47       1
    51   27   48       1
    52   28   49       1
    53   29   50       1
    54   30   51       1
    55    5   52       1
    56   25   53       1
@<TRIPOS>SUBSTRUCTURE
     1 P5A510      1 GROUP             4 A     P5A     0 **** P5A A 510
