@<TRIPOS>MOLECULE
4z26_FAD_6_ligand
   84    89     1     0     0
SMALL
NO_CHARGES


@<TRIPOS>ATOM
     1 PA          64.5670   -11.0290    16.7160 P.3          1 FAD901   0.0000
     2 O1A         63.3800   -11.8670    16.4810 O.co2        1 FAD901   0.0000
     3 O2A         65.5880   -11.9820    17.1960 O.co2        1 FAD901  -1.0000
     4 O5B         65.0110   -10.3170    15.3580 O.3          1 FAD901   0.0000
     5 C5B         66.3470    -9.8460    15.1620 C.3          1 FAD901   0.0000
     6 C4B         66.3790    -9.4430    13.7270 C.3          1 FAD901   0.0000
     7 O4B         67.0750    -8.1980    13.5400 O.3          1 FAD901   0.0000
     8 C3B         67.1100   -10.4880    12.9400 C.3          1 FAD901   0.0000
     9 O3B         66.3740   -10.8250    11.7760 O.3          1 FAD901   0.0000
    10 C2B         68.3870    -9.8610    12.6060 C.3          1 FAD901   0.0000
    11 O2B         68.9020   -10.3620    11.3580 O.3          1 FAD901   0.0000
    12 C1B         68.0720    -8.4210    12.5300 C.3          1 FAD901   0.0000
    13 N9A         69.2290    -7.6840    12.8020 N.pl3        1 FAD901   0.0000
    14 C8A         69.9940    -7.7190    13.9120 C.2          1 FAD901   0.0000
    15 N7A         71.0360    -6.8680    13.7730 N.2          1 FAD901   0.0000
    16 C5A         70.9310    -6.2540    12.5060 C.ar         1 FAD901   0.0000
    17 C6A         71.7180    -5.2490    11.7530 C.ar         1 FAD901   0.0000
    18 N6A         72.8960    -4.6830    12.3300 N.pl3        1 FAD901   0.0000
    19 N1A         71.3160    -4.8730    10.5130 N.ar         1 FAD901   0.0000
    20 C2A         70.2070    -5.4150     9.9710 C.ar         1 FAD901   0.0000
    21 N3A         69.4390    -6.3410    10.6100 N.ar         1 FAD901   0.0000
    22 C4A         69.7890    -6.7720    11.8870 C.ar         1 FAD901   0.0000
    23 N1          60.4300   -17.8320    21.9860 N.2          1 FAD901   0.0000
    24 C2          59.3220   -18.4480    22.3630 C.2          1 FAD901   0.0000
    25 O2          58.1380   -17.6410    22.5840 O.2          1 FAD901   0.0000
    26 N3          59.2970   -19.7760    22.5590 N.pl3        1 FAD901   0.0000
    27 C4          60.4070   -20.5410    22.3680 C.2          1 FAD901   0.0000
    28 O4          60.3690   -21.9170    22.5760 O.2          1 FAD901   0.0000
    29 C4X         61.6460   -19.8980    21.9410 C.2          1 FAD901   0.0000
    30 N5          62.7980   -20.6250    21.6710 N.2          1 FAD901   0.0000
    31 C5X         63.9070   -19.9630    21.1380 C.ar         1 FAD901   0.0000
    32 C6          65.0010   -20.7390    20.6020 C.ar         1 FAD901   0.0000
    33 C7          66.0870   -20.1000    19.9740 C.ar         1 FAD901   0.0000
    34 C7M         67.2300   -20.9420    19.4270 C.3          1 FAD901   0.0000
    35 C8          66.1020   -18.7050    19.8630 C.ar         1 FAD901   0.0000
    36 C8M         67.3130   -17.9630    19.1670 C.3          1 FAD901   0.0000
    37 C9          65.0230   -17.9340    20.3830 C.ar         1 FAD901   0.0000
    38 C9A         63.9120   -18.5870    21.0230 C.ar         1 FAD901   0.0000
    39 N10         62.7500   -17.8330    21.3210 N.pl3        1 FAD901   0.0000
    40 C10         61.6230   -18.5140    21.7510 C.2          1 FAD901   0.0000
    41 C1'         62.8950   -16.4580    21.7160 C.3          1 FAD901   0.0000
    42 C2'         62.1440   -15.5020    20.7620 C.3          1 FAD901   0.0000
    43 O2'         62.1310   -16.1230    19.5230 O.3          1 FAD901   0.0000
    44 C3'         62.8600   -14.1700    20.7020 C.3          1 FAD901   0.0000
    45 O3'         62.9750   -13.6430    21.9790 O.3          1 FAD901   0.0000
    46 C4'         62.0700   -13.1660    19.8620 C.3          1 FAD901   0.0000
    47 O4'         62.0680   -13.5560    18.5380 O.3          1 FAD901   0.0000
    48 C5'         62.7460   -11.7950    19.9420 C.3          1 FAD901   0.0000
    49 O5'         62.0950   -10.9790    18.9570 O.3          1 FAD901   0.0000
    50 P           62.8270    -9.6410    18.4490 P.3          1 FAD901   0.0000
    51 O1P         61.9660    -8.9220    17.4550 O.co2        1 FAD901   0.0000
    52 O2P         62.9720    -8.6560    19.5640 O.co2        1 FAD901  -1.0000
    53 O3P         64.2620    -9.9580    17.8350 O.3          1 FAD901   0.0000
    54 H5B1        67.0102   -10.5724    15.3423 H            1 FAD901   0.0000
    55 H5B2        66.5392    -9.0643    15.7553 H            1 FAD901   0.0000
    56 H4B         65.4440    -9.3583    13.3826 H            1 FAD901   0.0000
    57 H3B         67.2606   -11.3016    13.5016 H            1 FAD901   0.0000
    58 H5          66.6504   -10.2285    11.0225 H            1 FAD901   0.0000
    59 H2B         69.0485   -10.0262    13.3376 H            1 FAD901   0.0000
    60 H7          68.5648    -9.7949    10.6066 H            1 FAD901   0.0000
    61 H1B         67.7130    -8.1883    11.6261 H            1 FAD901   0.0000
    62 H8A         69.8177    -8.2876    14.7155 H            1 FAD901   0.0000
    63 H6A1        73.4260    -4.0050    11.8207 H            1 FAD901   0.0000
    64 H6A2        73.1905    -4.9648    13.2431 H            1 FAD901   0.0000
    65 H2A         69.9346    -5.1227     9.0543 H            1 FAD901   0.0000
    66 H13         58.4459   -20.2121    22.8512 H            1 FAD901   0.0000
    67 H14         64.9869   -21.7361    20.6774 H            1 FAD901   0.0000
    68 H7M1        67.9172   -20.3437    19.0150 H            1 FAD901   0.0000
    69 H7M2        67.6458   -21.4638    20.1719 H            1 FAD901   0.0000
    70 H7M3        66.8783   -21.5719    18.7346 H            1 FAD901   0.0000
    71 H8M1        67.1511   -16.9763    19.1798 H            1 FAD901   0.0000
    72 H8M2        68.1580   -18.1686    19.6606 H            1 FAD901   0.0000
    73 H8M3        67.3955   -18.2750    18.2205 H            1 FAD901   0.0000
    74 H21         65.0377   -16.9373    20.3031 H            1 FAD901   0.0000
    75 H1'1        63.8666   -16.2213    21.7121 H            1 FAD901   0.0000
    76 H1'2        62.5285   -16.3466    22.6397 H            1 FAD901   0.0000
    77 H2'         61.2068   -15.3688    21.0842 H            1 FAD901   0.0000
    78 H25         62.1242   -15.4295    18.8026 H            1 FAD901   0.0000
    79 H3'         63.7702   -14.2955    20.3073 H            1 FAD901   0.0000
    80 H27         62.5093   -12.7589    22.0179 H            1 FAD901   0.0000
    81 H4'         61.1310   -13.1031    20.2001 H            1 FAD901   0.0000
    82 H29         62.4908   -12.8422    17.9796 H            1 FAD901   0.0000
    83 H5'1        63.7216   -11.8755    19.7377 H            1 FAD901   0.0000
    84 H5'2        62.6277   -11.4012    20.8536 H            1 FAD901   0.0000
@<TRIPOS>BOND
     1    1    2      ar
     2    1    3      ar
     3    1    4       1
     4    1   53       1
     5    4    5       1
     6    5    6       1
     7    6    7       1
     8    6    8       1
     9    7   12       1
    10    8    9       1
    11    8   10       1
    12   10   11       1
    13   10   12       1
    14   12   13       1
    15   13   14       1
    16   13   22       1
    17   14   15       2
    18   15   16       1
    19   16   17      ar
    20   16   22      ar
    21   17   18       1
    22   17   19      ar
    23   19   20      ar
    24   20   21      ar
    25   21   22      ar
    26   23   24       1
    27   23   40       2
    28   24   25       2
    29   24   26       1
    30   26   27       1
    31   27   28       2
    32   27   29       1
    33   29   30       2
    34   29   40       1
    35   30   31       1
    36   31   32      ar
    37   31   38      ar
    38   32   33      ar
    39   33   34       1
    40   33   35      ar
    41   35   36       1
    42   35   37      ar
    43   37   38      ar
    44   38   39       1
    45   39   40       1
    46   39   41       1
    47   41   42       1
    48   42   43       1
    49   42   44       1
    50   44   45       1
    51   44   46       1
    52   46   47       1
    53   46   48       1
    54   48   49       1
    55   49   50       1
    56   50   51      ar
    57   50   52      ar
    58   50   53       1
    59   48   84       1
    60    5   54       1
    61    5   55       1
    62    6   56       1
    63    8   57       1
    64    9   58       1
    65   10   59       1
    66   11   60       1
    67   12   61       1
    68   14   62       1
    69   18   63       1
    70   18   64       1
    71   20   65       1
    72   26   66       1
    73   32   67       1
    74   34   68       1
    75   34   69       1
    76   34   70       1
    77   36   71       1
    78   36   72       1
    79   36   73       1
    80   37   74       1
    81   41   75       1
    82   41   76       1
    83   42   77       1
    84   43   78       1
    85   44   79       1
    86   45   80       1
    87   46   81       1
    88   47   82       1
    89   48   83       1
@<TRIPOS>SUBSTRUCTURE
     1 FAD901      1 GROUP             4 F     FAD     0 **** FAD F 901
