@<TRIPOS>MOLECULE
2qa1_FAD_1_ligand
   84    89     1     0     0
SMALL
NO_CHARGES


@<TRIPOS>ATOM
     1 PA          25.1120    57.0710    91.1520 P.3          1 FAD500   0.0000
     2 O1A         23.9700    57.4830    90.2490 O.co2        1 FAD500   0.0000
     3 O2A         25.1660    57.7420    92.4740 O.co2        1 FAD500  -1.0000
     4 O5B         25.0910    55.4480    91.2740 O.3          1 FAD500   0.0000
     5 C5B         25.8860    54.8700    92.3000 C.3          1 FAD500   0.0000
     6 C4B         25.2680    53.5060    92.6270 C.3          1 FAD500   0.0000
     7 O4B         26.2130    52.7020    93.2980 O.3          1 FAD500   0.0000
     8 C3B         24.1010    53.6900    93.5810 C.3          1 FAD500   0.0000
     9 O3B         22.9820    53.0670    93.0160 O.3          1 FAD500   0.0000
    10 C2B         24.5360    53.0470    94.8960 C.3          1 FAD500   0.0000
    11 O2B         23.4820    52.3400    95.5060 O.3          1 FAD500   0.0000
    12 C1B         25.5920    52.0830    94.4040 C.3          1 FAD500   0.0000
    13 N9A         26.6180    51.7480    95.4060 N.pl3        1 FAD500   0.0000
    14 C8A         27.3960    52.5690    96.2000 C.2          1 FAD500   0.0000
    15 N7A         28.2320    51.7630    96.9430 N.2          1 FAD500   0.0000
    16 C5A         27.9920    50.4460    96.6010 C.ar         1 FAD500   0.0000
    17 C6A         28.5290    49.2030    97.0250 C.ar         1 FAD500   0.0000
    18 N6A         29.5250    49.2320    97.9500 N.pl3        1 FAD500   0.0000
    19 N1A         28.0410    48.0090    96.4350 N.ar         1 FAD500   0.0000
    20 C2A         27.0290    48.0180    95.4670 C.ar         1 FAD500   0.0000
    21 N3A         26.5060    49.2530    95.0520 N.ar         1 FAD500   0.0000
    22 C4A         26.9800    50.4330    95.6250 C.ar         1 FAD500   0.0000
    23 N1          23.2020    65.2420    86.2140 N.2          1 FAD500   0.0000
    24 C2          22.8350    65.5870    84.9360 C.2          1 FAD500   0.0000
    25 O2          23.4630    65.1050    83.9870 O.2          1 FAD500   0.0000
    26 N3          21.7970    66.4700    84.7290 N.pl3        1 FAD500   0.0000
    27 C4          21.1170    67.0100    85.8130 C.2          1 FAD500   0.0000
    28 O4          20.1820    67.7850    85.6170 O.2          1 FAD500   0.0000
    29 C4X         21.4940    66.6610    87.1120 C.2          1 FAD500   0.0000
    30 N5          20.8310    67.1920    88.2020 N.2          1 FAD500   0.0000
    31 C5X         21.1950    66.8300    89.4870 C.ar         1 FAD500   0.0000
    32 C6          20.5090    67.4030    90.5660 C.ar         1 FAD500   0.0000
    33 C7          20.8560    67.0660    91.8760 C.ar         1 FAD500   0.0000
    34 C7M         20.1440    67.7560    93.0110 C.3          1 FAD500   0.0000
    35 C8          21.9030    66.1640    92.0980 C.ar         1 FAD500   0.0000
    36 C8M         22.3230    65.7740    93.4930 C.3          1 FAD500   0.0000
    37 C9          22.5870    65.5950    91.0130 C.ar         1 FAD500   0.0000
    38 C9A         22.2430    65.9400    89.6950 C.ar         1 FAD500   0.0000
    39 N10         22.9150    65.3800    88.5930 N.pl3        1 FAD500   0.0000
    40 C10         22.5420    65.7670    87.3100 C.2          1 FAD500   0.0000
    41 C1'         24.0610    64.4400    88.7800 C.3          1 FAD500   0.0000
    42 C2'         23.6620    62.9580    88.6340 C.3          1 FAD500   0.0000
    43 O2'         22.5110    62.6160    89.4000 O.3          1 FAD500   0.0000
    44 C3'         24.8610    62.1030    89.0230 C.3          1 FAD500   0.0000
    45 O3'         26.0240    62.6680    88.4240 O.3          1 FAD500   0.0000
    46 C4'         24.6950    60.6540    88.5870 C.3          1 FAD500   0.0000
    47 O4'         23.7230    60.0070    89.3980 O.3          1 FAD500   0.0000
    48 C5'         26.0150    59.9040    88.7170 C.3          1 FAD500   0.0000
    49 O5'         25.8230    58.5730    88.2650 O.3          1 FAD500   0.0000
    50 P           26.7310    57.3660    88.8040 P.3          1 FAD500   0.0000
    51 O1P         28.1870    57.6830    88.5590 O.co2        1 FAD500   0.0000
    52 O2P         26.2880    56.1380    88.0200 O.co2        1 FAD500  -1.0000
    53 O3P         26.5140    57.2860    90.3950 O.3          1 FAD500   0.0000
    54 H5B1        25.8783    55.4544    93.1114 H            1 FAD500   0.0000
    55 H5B2        26.8269    54.7538    91.9818 H            1 FAD500   0.0000
    56 H4B         24.9622    53.0545    91.7888 H            1 FAD500   0.0000
    57 H3B         23.9195    54.6638    93.7181 H            1 FAD500   0.0000
    58 H5          23.2787    52.2952    92.4536 H            1 FAD500   0.0000
    59 H2B         24.9262    53.7248    95.5192 H            1 FAD500   0.0000
    60 H7          23.1666    51.6165    94.8920 H            1 FAD500   0.0000
    61 H1B         25.1475    51.2408    94.0988 H            1 FAD500   0.0000
    62 H8A         27.3592    53.5679    96.2302 H            1 FAD500   0.0000
    63 H6A1        29.9304    48.3777    98.2751 H            1 FAD500   0.0000
    64 H6A2        29.8521    50.1077    98.3052 H            1 FAD500   0.0000
    65 H2A         26.6860    47.1624    95.0794 H            1 FAD500   0.0000
    66 H13         21.5334    66.7219    83.7978 H            1 FAD500   0.0000
    67 H14         19.7694    68.0546    90.3977 H            1 FAD500   0.0000
    68 H7M1        20.4961    67.4142    93.8823 H            1 FAD500   0.0000
    69 H7M2        20.3001    68.7420    92.9521 H            1 FAD500   0.0000
    70 H7M3        19.1633    67.5697    92.9517 H            1 FAD500   0.0000
    71 H8M1        23.0819    65.1247    93.4434 H            1 FAD500   0.0000
    72 H8M2        22.6140    66.5893    93.9937 H            1 FAD500   0.0000
    73 H8M3        21.5516    65.3494    93.9669 H            1 FAD500   0.0000
    74 H21         23.3240    64.9398    91.1788 H            1 FAD500   0.0000
    75 H1'1        24.4394    64.5785    89.6952 H            1 FAD500   0.0000
    76 H1'2        24.7591    64.6500    88.0955 H            1 FAD500   0.0000
    77 H2'         23.4566    62.7851    87.6707 H            1 FAD500   0.0000
    78 H25         21.7917    62.2831    88.7903 H            1 FAD500   0.0000
    79 H3'         24.9660    62.1297    90.0171 H            1 FAD500   0.0000
    80 H27         26.8203    62.4788    88.9986 H            1 FAD500   0.0000
    81 H4'         24.3959    60.6300    87.6331 H            1 FAD500   0.0000
    82 H29         23.9431    59.0342    89.4701 H            1 FAD500   0.0000
    83 H5'1        26.3060    59.8967    89.6737 H            1 FAD500   0.0000
    84 H5'2        26.7139    60.3521    88.1595 H            1 FAD500   0.0000
@<TRIPOS>BOND
     1    1    2      ar
     2    1    3      ar
     3    1    4       1
     4    1   53       1
     5    4    5       1
     6    5    6       1
     7    6    7       1
     8    6    8       1
     9    7   12       1
    10    8    9       1
    11    8   10       1
    12   10   11       1
    13   10   12       1
    14   12   13       1
    15   13   14       1
    16   13   22       1
    17   14   15       2
    18   15   16       1
    19   16   17      ar
    20   16   22      ar
    21   17   18       1
    22   17   19      ar
    23   19   20      ar
    24   20   21      ar
    25   21   22      ar
    26   23   24       1
    27   23   40       2
    28   24   25       2
    29   24   26       1
    30   26   27       1
    31   27   28       2
    32   27   29       1
    33   29   30       2
    34   29   40       1
    35   30   31       1
    36   31   32      ar
    37   31   38      ar
    38   32   33      ar
    39   33   34       1
    40   33   35      ar
    41   35   36       1
    42   35   37      ar
    43   37   38      ar
    44   38   39       1
    45   39   40       1
    46   39   41       1
    47   41   42       1
    48   42   43       1
    49   42   44       1
    50   44   45       1
    51   44   46       1
    52   46   47       1
    53   46   48       1
    54   48   49       1
    55   49   50       1
    56   50   51      ar
    57   50   52      ar
    58   50   53       1
    59   48   84       1
    60    5   54       1
    61    5   55       1
    62    6   56       1
    63    8   57       1
    64    9   58       1
    65   10   59       1
    66   11   60       1
    67   12   61       1
    68   14   62       1
    69   18   63       1
    70   18   64       1
    71   20   65       1
    72   26   66       1
    73   32   67       1
    74   34   68       1
    75   34   69       1
    76   34   70       1
    77   36   71       1
    78   36   72       1
    79   36   73       1
    80   37   74       1
    81   41   75       1
    82   41   76       1
    83   42   77       1
    84   43   78       1
    85   44   79       1
    86   45   80       1
    87   46   81       1
    88   47   82       1
    89   48   83       1
@<TRIPOS>SUBSTRUCTURE
     1 FAD500      1 GROUP             4 A     FAD     0 **** FAD A 500
