@<TRIPOS>MOLECULE
1vbi_NAD_1_ligand
   70    74     1     0     0
SMALL
NO_CHARGES


@<TRIPOS>ATOM
     1 PA           1.2570    68.3840    10.8170 P.3          1 NAD401   0.0000
     2 O1A          0.8540    68.4180    12.2260 O.co2        1 NAD401   0.0000
     3 O2A          0.1020    68.3140     9.9140 O.co2        1 NAD401  -1.0000
     4 O5B          2.0680    69.6830    10.3270 O.3          1 NAD401   0.0000
     5 C5B          2.9790    69.6930     9.1690 C.3          1 NAD401   0.0000
     6 C4B          3.7510    70.9910     9.2190 C.3          1 NAD401   0.0000
     7 O4B          2.7270    72.0010     9.3490 O.3          1 NAD401   0.0000
     8 C3B          4.6250    71.1320    10.4750 C.3          1 NAD401   0.0000
     9 O3B          5.9620    71.4790    10.0910 O.3          1 NAD401   0.0000
    10 C2B          3.9120    72.2200    11.3020 C.3          1 NAD401   0.0000
    11 O2B          4.8270    73.0610    12.0510 O.3          1 NAD401   0.0000
    12 C1B          3.1220    72.9830    10.2600 C.3          1 NAD401   0.0000
    13 N9A          1.9060    73.5490    10.8080 N.pl3        1 NAD401   0.0000
    14 C8A          0.8220    72.8890    11.3630 C.2          1 NAD401   0.0000
    15 N7A         -0.1690    73.7150    11.7790 N.2          1 NAD401   0.0000
    16 C5A          0.3400    74.9810    11.4590 C.ar         1 NAD401   0.0000
    17 C6A         -0.2090    76.3010    11.6340 C.ar         1 NAD401   0.0000
    18 N6A         -1.4040    76.5190    12.1840 N.pl3        1 NAD401   0.0000
    19 N1A          0.5750    77.3650    11.1960 N.ar         1 NAD401   0.0000
    20 C2A          1.8190    77.1230    10.6240 C.ar         1 NAD401   0.0000
    21 N3A          2.4040    75.9450    10.4220 N.ar         1 NAD401   0.0000
    22 C4A          1.6210    74.9020    10.8590 C.ar         1 NAD401   0.0000
    23 O3           2.2660    67.2330    10.5690 O.3          1 NAD401   0.0000
    24 PN           2.1790    65.6470    10.7050 P.3          1 NAD401   0.0000
    25 O1N          2.4950    65.1010     9.3630 O.co2        1 NAD401   0.0000
    26 O2N          0.8260    65.3100    11.1880 O.co2        1 NAD401  -1.0000
    27 O5D          3.3620    65.3030    11.7010 O.3          1 NAD401   0.0000
    28 C5D          3.5400    63.9280    12.0510 C.3          1 NAD401   0.0000
    29 C4D          4.7100    63.7770    13.0010 C.3          1 NAD401   0.0000
    30 O4D          4.9730    62.3550    13.0510 O.3          1 NAD401   0.0000
    31 C3D          6.0080    64.4610    12.5570 C.3          1 NAD401   0.0000
    32 O3D          6.7440    65.0440    13.6510 O.3          1 NAD401   0.0000
    33 C2D          6.7510    63.3160    11.8490 C.3          1 NAD401   0.0000
    34 O2D          8.1850    63.5310    11.8500 O.3          1 NAD401   0.0000
    35 C1D          6.3030    62.1180    12.6500 C.3          1 NAD401   0.0000
    36 N1N          6.3450    60.8600    11.8920 N.ar         1 NAD401   1.0000
    37 C2N          7.3750    60.0110    12.2670 C.ar         1 NAD401   0.0000
    38 C3N          7.4540    58.8030    11.5910 C.ar         1 NAD401   0.0000
    39 C7N          8.5310    57.7740    11.9020 C.2          1 NAD401   0.0000
    40 O7N          8.5330    56.7300    11.2650 O.2          1 NAD401   0.0000
    41 N7N          9.4490    58.0220    12.8630 N.am         1 NAD401   0.0000
    42 C4N          6.5070    58.4520    10.5410 C.ar         1 NAD401   0.0000
    43 C5N          5.5050    59.4230    10.2610 C.ar         1 NAD401   0.0000
    44 C6N          5.3610    60.6270    10.8820 C.ar         1 NAD401   0.0000
    45 H5B1         2.4540    69.6391     8.3196 H            1 NAD401   0.0000
    46 H5B2         3.6085    68.9177     9.2216 H            1 NAD401   0.0000
    47 H4B          4.2886    71.1251     8.3865 H            1 NAD401   0.0000
    48 H3B          4.6309    70.2702    10.9822 H            1 NAD401   0.0000
    49 H5           6.3847    72.0266    10.8131 H            1 NAD401   0.0000
    50 H2B          3.2762    71.7824    11.9378 H            1 NAD401   0.0000
    51 H7           4.6249    72.9863    13.0275 H            1 NAD401   0.0000
    52 H1B          3.6830    73.6837     9.8192 H            1 NAD401   0.0000
    53 H8A          0.7748    71.8938    11.4489 H            1 NAD401   0.0000
    54 H6A1        -1.7448    77.4537    12.2853 H            1 NAD401   0.0000
    55 H6A2        -1.9594    75.7478    12.4952 H            1 NAD401   0.0000
    56 H2A          2.3342    77.9281    10.3301 H            1 NAD401   0.0000
    57 H5D1         3.7165    63.3965    11.2225 H            1 NAD401   0.0000
    58 H5D2         2.7095    63.5896    12.4935 H            1 NAD401   0.0000
    59 H4D          4.4506    64.1039    13.9098 H            1 NAD401   0.0000
    60 H3D          5.7918    65.1740    11.8900 H            1 NAD401   0.0000
    61 H17          7.5767    65.4734    13.3013 H            1 NAD401   0.0000
    62 H2D          6.4236    63.2333    10.9078 H            1 NAD401   0.0000
    63 H19          8.3749    64.5128    11.8451 H            1 NAD401   0.0000
    64 H1D          6.8802    62.0315    13.4620 H            1 NAD401   0.0000
    65 H2N          8.0254    60.2565    12.9858 H            1 NAD401   0.0000
    66 H7N1        10.1560    57.3445    13.0659 H            1 NAD401   0.0000
    67 H7N2         9.4210    58.8829    13.3709 H            1 NAD401   0.0000
    68 H4N          6.5579    57.5834    10.0481 H            1 NAD401   0.0000
    69 H5N          4.8460    59.2011     9.5423 H            1 NAD401   0.0000
    70 H6N          4.6399    61.2814    10.6542 H            1 NAD401   0.0000
@<TRIPOS>BOND
     1    1    2      ar
     2    1    3      ar
     3    1    4       1
     4    1   23       1
     5    4    5       1
     6    5    6       1
     7    6    7       1
     8    6    8       1
     9    7   12       1
    10    8    9       1
    11    8   10       1
    12   10   11       1
    13   10   12       1
    14   12   13       1
    15   13   14       1
    16   13   22       1
    17   14   15       2
    18   15   16       1
    19   16   17      ar
    20   16   22      ar
    21   17   18       1
    22   17   19      ar
    23   19   20      ar
    24   20   21      ar
    25   21   22      ar
    26   23   24       1
    27   24   25      ar
    28   24   26      ar
    29   24   27       1
    30   27   28       1
    31   28   29       1
    32   29   30       1
    33   29   31       1
    34   30   35       1
    35   31   32       1
    36   31   33       1
    37   33   34       1
    38   33   35       1
    39   35   36       1
    40   36   37      ar
    41   36   44      ar
    42   37   38      ar
    43   38   39       1
    44   38   42      ar
    45   39   40       2
    46   39   41      am
    47   42   43      ar
    48   43   44      ar
    49   44   70       1
    50    5   45       1
    51    5   46       1
    52    6   47       1
    53    8   48       1
    54    9   49       1
    55   10   50       1
    56   11   51       1
    57   12   52       1
    58   14   53       1
    59   18   54       1
    60   18   55       1
    61   20   56       1
    62   43   69       1
    63   28   57       1
    64   28   58       1
    65   29   59       1
    66   31   60       1
    67   32   61       1
    68   33   62       1
    69   34   63       1
    70   35   64       1
    71   37   65       1
    72   41   66       1
    73   41   67       1
    74   42   68       1
@<TRIPOS>SUBSTRUCTURE
     1 NAD401      1 GROUP             4 A     NAD     0 **** NAD A 401
