@<TRIPOS>MOLECULE
3lt5_BLQ_1_ligand
   41    42     1     0     0
SMALL
NO_CHARGES


@<TRIPOS>ATOM
     1 CAA        -37.8260   -14.1880    -3.3390 C.ar         1 BLQ215   0.0000
     2 CAB        -37.3250   -14.9880    -2.1040 C.ar         1 BLQ215   0.0000
     3 CAC        -36.3660   -16.0010    -2.2520 C.ar         1 BLQ215   0.0000
     4 CAD        -35.7290   -16.2380    -3.5910 C.ar         1 BLQ215   0.0000
     5 CAE        -36.1310   -15.3680    -4.7790 C.ar         1 BLQ215   0.0000
     6 CAF        -37.0950   -14.3410    -4.6240 C.ar         1 BLQ215   0.0000
     7 CAG        -41.8810   -12.2580    -1.6560 C.ar         1 BLQ215   0.0000
     8 CAH        -35.5070   -15.6050    -6.1060 C.2          1 BLQ215   0.0000
     9 CAI        -44.4010   -13.7230     0.8660 C.2          1 BLQ215   0.0000
    10 CAJ        -45.1930   -14.6170     3.1350 C.3          1 BLQ215   0.0000
    11 CAK        -44.9340   -14.6980     5.7540 C.2          1 BLQ215   0.0000
    12 CAL        -44.3500   -14.3380     4.3860 C.3          1 BLQ215   0.0000
    13 CAM        -40.7030   -13.1500    -1.4580 C.ar         1 BLQ215   0.0000
    14 CAN        -40.7700   -14.2000    -0.5030 C.ar         1 BLQ215   0.0000
    15 CAO        -41.9300   -14.4130     0.2520 C.ar         1 BLQ215   0.0000
    16 CAP        -43.1330   -13.5030     0.0490 C.ar         1 BLQ215   0.0000
    17 CAQ        -43.0750   -12.4760    -0.8780 C.ar         1 BLQ215   0.0000
    18 NAR        -39.4620   -12.9520    -2.2240 N.pl3        1 BLQ215   0.0000
    19 NAS        -39.1750   -13.6690    -3.3650 N.pl3        1 BLQ215   0.0000
    20 NAT        -44.4760   -14.8100     1.8500 N.am         1 BLQ215   0.0000
    21 OAU        -34.7560   -17.2330    -3.7350 O.3          1 BLQ215   0.0000
    22 OAV        -35.8550   -14.8060    -7.1880 O.co2        1 BLQ215   0.0000
    23 OAW        -34.5650   -16.5930    -6.2320 O.co2        1 BLQ215  -1.0000
    24 OAX        -44.2640   -14.3260     6.9200 O.co2        1 BLQ215   0.0000
    25 OAY        -45.4990   -12.8730     0.6630 O.2          1 BLQ215   0.0000
    26 OAZ        -46.1330   -15.3980     5.8360 O.co2        1 BLQ215  -1.0000
    27 HAB        -37.6893   -14.7788    -1.1965 H            1 BLQ215   0.0000
    28 HAC        -36.1071   -16.5642    -1.4673 H            1 BLQ215   0.0000
    29 HAF        -37.2842   -13.7168    -5.3821 H            1 BLQ215   0.0000
    30 HAG        -41.8433   -11.5142    -2.3233 H            1 BLQ215   0.0000
    31 HAJ1       -45.8163   -13.8441     3.0162 H            1 BLQ215   0.0000
    32 HAJ2       -45.7215   -15.4477     3.3100 H            1 BLQ215   0.0000
    33 HAL1       -44.1538   -13.3575     4.3973 H            1 BLQ215   0.0000
    34 HAL2       -43.4955   -14.8478     4.2862 H            1 BLQ215   0.0000
    35 HAN        -39.9778   -14.7951    -0.3682 H            1 BLQ215   0.0000
    36 HAO        -41.9677   -15.1570     0.9191 H            1 BLQ215   0.0000
    37 HAQ        -43.8678   -11.8807    -1.0089 H            1 BLQ215   0.0000
    38 HAR        -38.8025   -12.2717    -1.9044 H            1 BLQ215   0.0000
    39 HAS        -39.8189   -13.8124    -4.1166 H            1 BLQ215   0.0000
    40 HAT        -44.0402   -15.6881     1.6527 H            1 BLQ215   0.0000
    41 HAU        -34.3312   -17.3916    -4.6263 H            1 BLQ215   0.0000
@<TRIPOS>BOND
     1    1    2      ar
     2    1    6      ar
     3    1   19       1
     4    2    3      ar
     5    3    4      ar
     6    4    5      ar
     7    4   21       1
     8    5    6      ar
     9    5    8       1
    10    7   13      ar
    11    7   17      ar
    12    8   22      ar
    13    8   23      ar
    14    9   16       1
    15    9   20      am
    16    9   25       2
    17   10   12       1
    18   10   20       1
    19   11   12       1
    20   11   24      ar
    21   11   26      ar
    22   13   14      ar
    23   13   18       1
    24   14   15      ar
    25   15   16      ar
    26   16   17      ar
    27   18   19       1
    28    2   27       1
    29    3   28       1
    30    6   29       1
    31    7   30       1
    32   10   31       1
    33   10   32       1
    34   12   33       1
    35   12   34       1
    36   14   35       1
    37   15   36       1
    38   17   37       1
    39   18   38       1
    40   19   39       1
    41   20   40       1
    42   21   41       1
@<TRIPOS>SUBSTRUCTURE
     1 BLQ215      1 GROUP             4 A     BLQ     0 **** BLQ A 215
