@<TRIPOS>MOLECULE
3akz_GSU_1_ligand
   53    55     1     0     0
SMALL
NO_CHARGES


@<TRIPOS>ATOM
     1 C2          -5.7110    57.0020     1.3460 C.ar         1 GSU1001   0.0000
     2 S           -0.1000    63.9030     2.4040 S.o2         1 GSU1001   0.0000
     3 N            0.8600    65.8920     6.2830 N.4          1 GSU1001   1.0000
     4 CA          -0.1570    64.8340     6.3350 C.3          1 GSU1001   0.0000
     5 CB          -1.5420    65.4640     6.5320 C.3          1 GSU1001   0.0000
     6 CG          -2.3560    64.6320     7.5300 C.3          1 GSU1001   0.0000
     7 CD          -3.6330    65.3560     7.8730 C.2          1 GSU1001   0.0000
     8 OE1         -4.6240    65.2050     7.1840 O.co2        1 GSU1001   0.0000
     9 OE2         -3.6720    66.0880     8.8400 O.co2        1 GSU1001  -1.0000
    10 C           -0.1330    64.0510     5.0540 C.2          1 GSU1001   0.0000
    11 O           -0.1310    62.8350     5.0900 O.2          1 GSU1001   0.0000
    12 N10         -0.1200    64.7090     3.8640 N.am         1 GSU1001   0.0000
    13 O1S          0.9170    62.9150     2.5190 O.2          1 GSU1001   0.0000
    14 O2S         -0.1190    64.9230     1.4050 O.2          1 GSU1001   0.0000
    15 O5'         -1.4210    63.1180     2.2630 O.3          1 GSU1001   0.0000
    16 C5'         -2.5400    64.0240     2.3900 C.3          1 GSU1001   0.0000
    17 C4'         -3.7900    63.3000     2.9410 C.3          1 GSU1001   0.0000
    18 O4'         -4.0390    62.1580     2.0600 O.3          1 GSU1001   0.0000
    19 C1'         -4.0330    60.9250     2.8470 C.3          1 GSU1001   0.0000
    20 N9          -3.4440    59.8120     2.0780 N.pl3        1 GSU1001   0.0000
    21 C4          -4.0980    58.6680     1.6920 C.ar         1 GSU1001   0.0000
    22 N3          -5.3540    58.1860     1.8520 N.ar         1 GSU1001   0.0000
    23 N1          -4.8410    56.2440     0.6620 N.ar         1 GSU1001   0.0000
    24 C6          -3.5650    56.6400     0.4510 C.ar         1 GSU1001   0.0000
    25 N6          -2.6880    55.8390    -0.2570 N.pl3        1 GSU1001   0.0000
    26 C5          -3.1420    57.8980     0.9730 C.ar         1 GSU1001   0.0000
    27 N7          -1.9860    58.6030     0.9630 N.2          1 GSU1001   0.0000
    28 C8          -2.1570    59.7230     1.6080 C.2          1 GSU1001   0.0000
    29 C2'         -3.2270    61.2720     4.0920 C.3          1 GSU1001   0.0000
    30 O2'         -3.5230    60.4250     5.2040 O.3          1 GSU1001   0.0000
    31 C3'         -3.5310    62.7670     4.3730 C.3          1 GSU1001   0.0000
    32 O3'         -4.7480    62.8060     5.1190 O.3          1 GSU1001   0.0000
    33 H1          -6.6462    56.6742     1.4800 H            1 GSU1001   0.0000
    34 H2           1.1979    66.0752     7.2062 H            1 GSU1001   0.0000
    35 H3           1.6190    65.5966     5.7027 H            1 GSU1001   0.0000
    36 HA           0.0405    64.2221     7.1009 H            1 GSU1001   0.0000
    37 HB1         -2.0214    65.4921     5.6549 H            1 GSU1001   0.0000
    38 HB2         -1.4363    66.3940     6.8840 H            1 GSU1001   0.0000
    39 HG1         -1.8192    64.4925     8.3621 H            1 GSU1001   0.0000
    40 HG2         -2.5756    63.7456     7.1225 H            1 GSU1001   0.0000
    41 H9          -0.1225    65.7090     3.8643 H            1 GSU1001   0.0000
    42 H5'1        -2.7543    64.4049     1.4906 H            1 GSU1001   0.0000
    43 H5'2        -2.2906    64.7641     3.0146 H            1 GSU1001   0.0000
    44 H4'         -4.5768    63.9172     2.9384 H            1 GSU1001   0.0000
    45 H1'         -4.9693    60.6914     3.1093 H            1 GSU1001   0.0000
    46 H14         -1.7465    56.1402    -0.4080 H            1 GSU1001   0.0000
    47 H15         -2.9953    54.9585    -0.6180 H            1 GSU1001   0.0000
    48 H16         -1.4510    60.4185     1.7415 H            1 GSU1001   0.0000
    49 H2'         -2.2550    61.1819     3.8752 H            1 GSU1001   0.0000
    50 H18         -2.9140    59.6320     5.1904 H            1 GSU1001   0.0000
    51 H3'         -2.7777    63.2373     4.8328 H            1 GSU1001   0.0000
    52 H20         -4.8274    63.6891     5.5814 H            1 GSU1001   0.0000
    53 H21          0.4557    66.7247     5.9047 H            1 GSU1001   0.0000
@<TRIPOS>BOND
     1    1   22      ar
     2    1   23      ar
     3    2   12       1
     4    2   13       2
     5    2   14       2
     6    2   15       1
     7    3    4       1
     8    4    5       1
     9    4   10       1
    10    5    6       1
    11    6    7       1
    12    7    8      ar
    13    7    9      ar
    14   10   11       2
    15   10   12      am
    16   15   16       1
    17   16   17       1
    18   17   18       1
    19   17   31       1
    20   18   19       1
    21   19   20       1
    22   19   29       1
    23   20   21       1
    24   20   28       1
    25   21   22      ar
    26   21   26      ar
    27   23   24      ar
    28   24   25       1
    29   24   26      ar
    30   26   27       1
    31   27   28       2
    32   29   30       1
    33   29   31       1
    34   31   32       1
    35    1   33       1
    36    3   34       1
    37    3   35       1
    38    4   36       1
    39    5   37       1
    40    5   38       1
    41    6   39       1
    42    6   40       1
    43    3   53       1
    44   12   41       1
    45   16   42       1
    46   16   43       1
    47   17   44       1
    48   19   45       1
    49   25   46       1
    50   25   47       1
    51   28   48       1
    52   29   49       1
    53   30   50       1
    54   31   51       1
    55   32   52       1
@<TRIPOS>SUBSTRUCTURE
     1 GSU1001     1 GROUP             4 A     GSU     0 **** GSU A1001
