@<TRIPOS>MOLECULE
./coach420/2dpt/ligand.pdb
 43 45 0 0 0
SMALL
GASTEIGER

@<TRIPOS>ATOM
      1  O1        44.3010   46.7470   13.5900 O.co2 502  TAR502     -0.2427
      2  O11       45.0890   47.9840   11.9510 O.co2 502  TAR502     -0.2427
      3  C1        44.8520   47.7670   13.2460 C.2   502  TAR502      0.3979
      4  C2        45.2710   48.8060   14.2650 C.3   502  TAR502      0.2950
      5  O2        44.9170   48.3700   15.5800 O.3   502  TAR502     -0.2075
      6  C3        46.7860   49.0420   14.2160 C.3   502  TAR502      0.2950
      7  O3        47.4620   47.8110   14.5110 O.3   502  TAR502     -0.2075
      8  C4        47.1610   50.0980   15.2390 C.2   502  TAR502      0.3979
      9  O4        47.9230   49.8390   16.1360 O.co2 502  TAR502     -0.2427
     10  O41       46.6410   51.3300   15.1480 O.co2 502  TAR502     -0.2427
     11  CA        35.9230   55.5620    9.6320 C.3   501  PUY501      0.0915
     12  CB        34.8100   54.5090    9.8400 C.3   501  PUY501      0.0360
     13  CG        34.7520   53.3440    8.8790 C.ar  501  PUY501     -0.0215
     14  CD1       34.0340   52.1830    9.2270 C.ar  501  PUY501     -0.0011
     15  CD2       35.4090   53.3830    7.6060 C.ar  501  PUY501     -0.0011
     16  CE1       33.9490   51.0780    8.3650 C.ar  501  PUY501      0.0366
     17  CE2       35.3220   52.2540    6.7280 C.ar  501  PUY501      0.0366
     18  CZ        34.6000   51.0990    7.0870 C.ar  501  PUY501      0.1387
     19  O         34.5870   57.4780    9.1910 O.2   501  PUY501     -0.2733
     20  OM        34.4330   49.9600    6.3590 O.3   501  PUY501     -0.4714
     21  CMZ       34.0060   50.0630    4.9910 C.3   501  PUY501      0.2525
     22  C         35.3950   56.9370    9.9300 C.2   501  PUY501      0.2418
     23  O5'       37.4940   60.8250   13.6880 O.3   501  PUY501     -0.2176
     24  C5'       37.4220   59.4880   13.2300 C.3   501  PUY501      0.2133
     25  C4'       36.0200   58.9750   13.0700 C.3   501  PUY501      0.1727
     26  O4'       35.1010   59.9020   13.6740 O.3   501  PUY501     -0.3314
     27  C1'       33.9020   59.9610   12.9480 C.3   501  PUY501      0.2400
     28  N9        33.5090   61.3570   12.5920 N.ar  501  PUY501     -0.2694
     29  C4        33.9180   62.5170   13.2360 C.ar  501  PUY501      0.1691
     30  N3        34.7870   62.5530   14.3130 N.ar  501  PUY501     -0.2048
     31  C2        34.9880   63.7870   14.7130 C.ar  501  PUY501      0.2015
     32  N1        34.4490   64.9090   14.1780 N.ar  501  PUY501     -0.2073
     33  C6        33.5700   64.9150   13.0870 C.ar  501  PUY501      0.1544
     34  N6        33.0900   66.0920   12.6360 N.pl3 501  PUY501     -0.2884
     35  C9        32.1710   66.2170   11.5080 C.3   501  PUY501      0.1137
     36  C10       33.4800   67.3440   13.2770 C.3   501  PUY501      0.1137
     37  C5        33.3030   63.5610   12.5880 C.ar  501  PUY501      0.1486
     38  N7        32.4990   63.0870   11.5370 N.ar  501  PUY501     -0.2194
     39  C8        32.6690   61.7990   11.6030 C.ar  501  PUY501      0.1816
     40  C2'       34.0400   59.0320   11.7710 C.3   501  PUY501      0.2233
     41  O2'       33.3360   57.8470   12.1240 O.3   501  PUY501     -0.2164
     42  C3'       35.5330   58.8330   11.6210 C.3   501  PUY501      0.1597
     43  N3'       35.8940   57.4810   11.0800 N.am  501  PUY501     -0.2018
@<TRIPOS>BOND
     1     1     3   ar
     2     2     3   ar
     3     3     4    1
     4     4     6    1
     5     4     5    1
     6     6     7    1
     7     6     8    1
     8     8    10   ar
     9     8     9   ar
    10    11    12    1
    11    11    22    1
    12    12    13    1
    13    13    15   ar
    14    13    14   ar
    15    14    16   ar
    16    15    17   ar
    17    16    18   ar
    18    17    18   ar
    19    18    20    1
    20    19    22    2
    21    20    21    1
    22    22    43   am
    23    23    24    1
    24    24    25    1
    25    25    42    1
    26    25    26    1
    27    26    27    1
    28    27    40    1
    29    27    28    1
    30    28    39   ar
    31    28    29   ar
    32    29    37   ar
    33    29    30   ar
    34    30    31   ar
    35    31    32   ar
    36    32    33   ar
    37    33    37   ar
    38    33    34    1
    39    34    35    1
    40    34    36    1
    41    37    38   ar
    42    38    39   ar
    43    40    42    1
    44    40    41    1
    45    42    43    1
