@<TRIPOS>MOLECULE
4jhi_EMU_1_ligand
   28    30     1     0     0
SMALL
NO_CHARGES


@<TRIPOS>ATOM
     1 N1          36.1210    14.6730    10.6920 N.ar         1 EMU202   0.0000
     2 C2          35.7490    14.8750     9.3980 C.ar         1 EMU202   0.0000
     3 N3          36.1660    15.8590     8.5170 N.ar         1 EMU202   0.0000
     4 C4          37.0340    16.6780     9.1180 C.ar         1 EMU202   0.0000
     5 C5          37.5110    16.5860    10.4250 C.ar         1 EMU202   0.0000
     6 C6          37.0270    15.5310    11.2160 C.ar         1 EMU202   0.0000
     7 C9          36.5810    14.5950    13.4130 C.3          1 EMU202   0.0000
     8 N7          38.3950    17.5830    10.6770 N.pl3        1 EMU202   0.0000
     9 C8          38.4520    18.3020     9.5310 C.2          1 EMU202   0.0000
    10 N9          37.6570    17.7890     8.5740 N.2          1 EMU202   0.0000
    11 C10         37.4420    13.5840    14.1130 C.ar         1 EMU202   0.0000
    12 C11         37.0220    13.0280    15.3160 C.ar         1 EMU202   0.0000
    13 C12         37.8510    12.0770    15.9410 C.ar         1 EMU202   0.0000
    14 C13         39.0800    11.7150    15.3580 C.ar         1 EMU202   0.0000
    15 C14         39.4820    12.2700    14.1460 C.ar         1 EMU202   0.0000
    16 C15         38.6560    13.2140    13.5190 C.ar         1 EMU202   0.0000
    17 N10         37.4520    15.3550    12.5520 N.pl3        1 EMU202   0.0000
    18 H1          35.0834    14.2236     9.0337 H            1 EMU202   0.0000
    19 H2          36.1448    15.1979    14.0810 H            1 EMU202   0.0000
    20 H3          35.8782    14.1335    12.8717 H            1 EMU202   0.0000
    21 H4          39.0178    19.1176     9.4101 H            1 EMU202   0.0000
    22 H5          36.1514    13.2972    15.7278 H            1 EMU202   0.0000
    23 H6          37.5656    11.6571    16.8025 H            1 EMU202   0.0000
    24 H7          39.6704    11.0525    15.8190 H            1 EMU202   0.0000
    25 H8          40.3489    11.9988    13.7278 H            1 EMU202   0.0000
    26 H9          38.9329    13.6225    12.6493 H            1 EMU202   0.0000
    27 H10         38.3139    15.7385    12.8836 H            1 EMU202   0.0000
    28 H11         38.8964    17.7509    11.5257 H            1 EMU202   0.0000
@<TRIPOS>BOND
     1    1    2      ar
     2    1    6      ar
     3    2    3      ar
     4    3    4      ar
     5    4    5      ar
     6    4   10       1
     7    5    6      ar
     8    5    8       1
     9    6   17       1
    10    7   11       1
    11    7   17       1
    12    8    9       1
    13    9   10       2
    14   11   12      ar
    15   11   16      ar
    16   12   13      ar
    17   13   14      ar
    18   14   15      ar
    19   15   16      ar
    20    2   18       1
    21    7   19       1
    22    7   20       1
    23   17   27       1
    24    9   21       1
    25   12   22       1
    26   13   23       1
    27   14   24       1
    28   15   25       1
    29   16   26       1
    30    8   28       1
@<TRIPOS>SUBSTRUCTURE
     1 EMU202      1 GROUP             4 A     EMU     0 **** EMU A 202
