@<TRIPOS>MOLECULE
3rhr_NDP_2_ligand
   73    77     1     0     0
SMALL
NO_CHARGES


@<TRIPOS>ATOM
     1 PA          59.0030   -31.1580    33.1450 P.3          1 NDP903   0.0000
     2 O1A         60.3640   -30.6490    32.8760 O.co2        1 NDP903   0.0000
     3 O2A         58.7570   -32.4840    32.5380 O.co2        1 NDP903  -1.0000
     4 O5B         57.9320   -30.1140    32.5640 O.3          1 NDP903   0.0000
     5 C5B         57.9100   -28.7640    32.9770 C.3          1 NDP903   0.0000
     6 C4B         57.2370   -27.9620    31.8770 C.3          1 NDP903   0.0000
     7 O4B         58.0420   -28.0160    30.7080 O.3          1 NDP903   0.0000
     8 C3B         55.8830   -28.5560    31.4900 C.3          1 NDP903   0.0000
     9 O3B         54.9880   -27.5130    31.1550 O.3          1 NDP903   0.0000
    10 C2B         56.2140   -29.3470    30.2420 C.3          1 NDP903   0.0000
    11 O2B         55.1320   -29.5160    29.3590 O.3          1 NDP903   0.0000
    12 C1B         57.2440   -28.4370    29.6170 C.3          1 NDP903   0.0000
    13 N9A         57.9970   -29.1020    28.5440 N.pl3        1 NDP903   0.0000
    14 C8A         58.2470   -30.4460    28.3630 C.2          1 NDP903   0.0000
    15 N7A         58.9750   -30.5850    27.2250 N.2          1 NDP903   0.0000
    16 C5A         59.1760   -29.3540    26.6900 C.ar         1 NDP903   0.0000
    17 C6A         59.8400   -28.9050    25.5600 C.ar         1 NDP903   0.0000
    18 N6A         60.3730   -29.7680    24.7080 N.pl3        1 NDP903   0.0000
    19 N1A         59.8820   -27.5530    25.2740 N.ar         1 NDP903   0.0000
    20 C2A         59.2670   -26.6430    26.1050 C.ar         1 NDP903   0.0000
    21 N3A         58.6030   -27.0950    27.2230 N.ar         1 NDP903   0.0000
    22 C4A         58.5640   -28.4200    27.5080 C.ar         1 NDP903   0.0000
    23 O3          58.8210   -31.1080    34.7350 O.3          1 NDP903   0.0000
    24 PN          58.0320   -32.1800    35.6340 P.3          1 NDP903   0.0000
    25 O1N         58.9070   -33.3530    35.9040 O.co2        1 NDP903   0.0000
    26 O2N         56.6840   -32.3690    35.0570 O.co2        1 NDP903  -1.0000
    27 O5D         57.9790   -31.3200    36.9980 O.3          1 NDP903   0.0000
    28 C5D         58.8010   -31.6980    38.0900 C.3          1 NDP903   0.0000
    29 C4D         60.1920   -31.0580    38.0190 C.3          1 NDP903   0.0000
    30 O4D         60.0760   -29.6380    37.9910 O.3          1 NDP903   0.0000
    31 C3D         60.9850   -31.4040    39.2720 C.3          1 NDP903   0.0000
    32 O3D         62.2980   -31.8040    38.9570 O.3          1 NDP903   0.0000
    33 C2D         60.9780   -30.1120    40.0700 C.3          1 NDP903   0.0000
    34 O2D         62.0840   -29.9780    40.9270 O.3          1 NDP903   0.0000
    35 C1D         60.9190   -29.0570    38.9740 C.3          1 NDP903   0.0000
    36 N1N         60.4080   -27.7490    39.4420 N.ar         1 NDP903   1.0000
    37 C2N         61.3180   -26.7640    39.7040 C.ar         1 NDP903   0.0000
    38 C3N         60.9490   -25.5920    40.3820 C.ar         1 NDP903   0.0000
    39 C7N         61.9780   -24.5510    40.6250 C.2          1 NDP903   0.0000
    40 O7N         61.5140   -23.2780    40.9720 O.2          1 NDP903   0.0000
    41 N7N         63.2590   -24.8500    40.4810 N.am         1 NDP903   0.0000
    42 C4N         59.5290   -25.3160    40.8640 C.ar         1 NDP903   0.0000
    43 C5N         58.6300   -26.4700    40.5050 C.ar         1 NDP903   0.0000
    44 C6N         59.0960   -27.6030    39.8270 C.ar         1 NDP903   0.0000
    45 P2B         54.0590   -30.6860    29.6360 P.3          1 NDP903   0.0000
    46 O1X         54.6580   -31.7210    30.5740 O.co2        1 NDP903   0.0000
    47 O2X         52.8370   -30.0530    30.2590 O.co2        1 NDP903  -1.0000
    48 O3X         53.7250   -31.2840    28.2890 O.co2        1 NDP903  -1.0000
    49 H5B1        58.8437   -28.4345    33.1175 H            1 NDP903   0.0000
    50 H5B2        57.3936   -28.6758    33.8288 H            1 NDP903   0.0000
    51 H4B         57.1222   -27.0124    32.1686 H            1 NDP903   0.0000
    52 H3B         55.5154   -29.1414    32.2126 H            1 NDP903   0.0000
    53 H5          54.8731   -26.9068    31.9419 H            1 NDP903   0.0000
    54 H2B         56.6189   -30.2301    30.4793 H            1 NDP903   0.0000
    55 H1B         56.7774   -27.6395    29.2345 H            1 NDP903   0.0000
    56 H8A         57.9457   -31.1869    28.9632 H            1 NDP903   0.0000
    57 H6A1        60.8509   -29.4370    23.8943 H            1 NDP903   0.0000
    58 H6A2        60.2975   -30.7505    24.8785 H            1 NDP903   0.0000
    59 H2A         59.3024   -25.6652    25.8986 H            1 NDP903   0.0000
    60 H5D1        58.9039   -32.6927    38.0860 H            1 NDP903   0.0000
    61 H5D2        58.3584   -31.4121    38.9399 H            1 NDP903   0.0000
    62 H4D         60.6770   -31.3793    37.2057 H            1 NDP903   0.0000
    63 H3D         60.5198   -32.1261    39.7840 H            1 NDP903   0.0000
    64 H16         62.7907   -32.0236    39.7991 H            1 NDP903   0.0000
    65 H2D         60.1384   -30.0674    40.6114 H            1 NDP903   0.0000
    66 H18         62.0924   -30.7344    41.5811 H            1 NDP903   0.0000
    67 H1D         61.8336   -28.9328    38.5893 H            1 NDP903   0.0000
    68 H2N         62.2657   -26.8806    39.4068 H            1 NDP903   0.0000
    69 H7N1        63.9566   -24.1522    40.6435 H            1 NDP903   0.0000
    70 H7N2        63.5294   -25.7737    40.2097 H            1 NDP903   0.0000
    71 H4N         59.2375   -24.4905    41.3473 H            1 NDP903   0.0000
    72 H5N         57.6642   -26.4253    40.7604 H            1 NDP903   0.0000
    73 H6N         58.4489   -28.3352    39.6143 H            1 NDP903   0.0000
@<TRIPOS>BOND
     1    1    2      ar
     2    1    3      ar
     3    1    4       1
     4    1   23       1
     5    4    5       1
     6    5    6       1
     7    6    7       1
     8    6    8       1
     9    7   12       1
    10    8    9       1
    11    8   10       1
    12   10   11       1
    13   10   12       1
    14   11   45       1
    15   12   13       1
    16   13   14       1
    17   13   22       1
    18   14   15       2
    19   15   16       1
    20   16   17      ar
    21   16   22      ar
    22   17   18       1
    23   17   19      ar
    24   19   20      ar
    25   20   21      ar
    26   21   22      ar
    27   23   24       1
    28   24   25      ar
    29   24   26      ar
    30   24   27       1
    31   27   28       1
    32   28   29       1
    33   29   30       1
    34   29   31       1
    35   30   35       1
    36   31   32       1
    37   31   33       1
    38   33   34       1
    39   33   35       1
    40   35   36       1
    41   36   37      ar
    42   36   44      ar
    43   37   38      ar
    44   38   39       1
    45   38   42      ar
    46   39   40       2
    47   39   41      am
    48   42   43      ar
    49   43   44      ar
    50   45   46      ar
    51   45   47      ar
    52   45   48      ar
    53   43   72       1
    54    5   49       1
    55    5   50       1
    56    6   51       1
    57    8   52       1
    58    9   53       1
    59   10   54       1
    60   12   55       1
    61   14   56       1
    62   18   57       1
    63   18   58       1
    64   20   59       1
    65   44   73       1
    66   28   60       1
    67   28   61       1
    68   29   62       1
    69   31   63       1
    70   32   64       1
    71   33   65       1
    72   34   66       1
    73   35   67       1
    74   37   68       1
    75   41   69       1
    76   41   70       1
    77   42   71       1
@<TRIPOS>SUBSTRUCTURE
     1 NDP903      1 GROUP             4 B     NDP     0 **** NDP B 903
