@<TRIPOS>MOLECULE
3b2e_ADP_3_ligand
   39    41     1     0     0
SMALL
NO_CHARGES


@<TRIPOS>ATOM
     1 PB          35.7230     3.6310   -23.3630 P.3          1 ADP401   0.0000
     2 O1B         36.8380     3.0500   -24.1420 O.co2        1 ADP401   0.0000
     3 O2B         34.2960     3.1370   -23.9300 O.co2        1 ADP401  -1.0000
     4 O3B         35.7780     5.2370   -23.4310 O.co2        1 ADP401  -1.0000
     5 PA          37.2240     3.6060   -21.1840 P.3          1 ADP401   0.0000
     6 O1A         38.3390     2.8680   -21.8180 O.co2        1 ADP401   0.0000
     7 O2A         37.4530     5.1950   -21.2850 O.co2        1 ADP401  -1.0000
     8 O3A         35.8040     3.1900   -21.8420 O.3          1 ADP401   0.0000
     9 O5'         37.0630     3.1580   -19.6790 O.3          1 ADP401   0.0000
    10 C5'         38.1950     3.4580   -18.9230 C.3          1 ADP401   0.0000
    11 C4'         37.8060     2.9830   -17.5550 C.3          1 ADP401   0.0000
    12 O4'         37.4900     1.7890   -17.6080 O.3          1 ADP401   0.0000
    13 C3'         38.9320     3.2310   -16.5570 C.3          1 ADP401   0.0000
    14 O3'         38.4960     4.1850   -15.5770 O.3          1 ADP401   0.0000
    15 C2'         39.2280     1.8590   -15.9760 C.3          1 ADP401   0.0000
    16 O2'         39.0080     1.8340   -14.5540 O.3          1 ADP401   0.0000
    17 C1'         38.2550     0.9590   -16.7000 C.3          1 ADP401   0.0000
    18 N9          38.9520    -0.1390   -17.4240 N.pl3        1 ADP401   0.0000
    19 C8          39.0700    -0.3090   -18.7800 C.2          1 ADP401   0.0000
    20 N7          39.7370    -1.3960   -19.0420 N.2          1 ADP401   0.0000
    21 C5          40.0910    -1.9900   -17.8810 C.ar         1 ADP401   0.0000
    22 C6          40.8010    -3.1670   -17.5220 C.ar         1 ADP401   0.0000
    23 N6          41.3090    -4.0160   -18.4850 N.pl3        1 ADP401   0.0000
    24 N1          40.9680    -3.4470   -16.2140 N.ar         1 ADP401   0.0000
    25 C2          40.4860    -2.6490   -15.2560 C.ar         1 ADP401   0.0000
    26 N3          39.8130    -1.5480   -15.5530 N.ar         1 ADP401   0.0000
    27 C4          39.5990    -1.1840   -16.8310 C.ar         1 ADP401   0.0000
    28 H5'1        38.3812     4.4405   -18.9251 H            1 ADP401   0.0000
    29 H5'2        38.9969     2.9661   -19.2620 H            1 ADP401   0.0000
    30 H4'         37.0059     3.5049   -17.2591 H            1 ADP401   0.0000
    31 H3'         39.7387     3.5790   -17.0345 H            1 ADP401   0.0000
    32 H5          37.8309     4.8070   -15.9902 H            1 ADP401   0.0000
    33 H2'         40.1684     1.5906   -16.1851 H            1 ADP401   0.0000
    34 H7          38.7035     2.7360   -14.2479 H            1 ADP401   0.0000
    35 H1'         37.6310     0.5564   -16.0303 H            1 ADP401   0.0000
    36 H9          38.6971     0.3129   -19.4687 H            1 ADP401   0.0000
    37 H10         41.8061    -4.8400   -18.2132 H            1 ADP401   0.0000
    38 H11         41.1798    -3.8069   -19.4543 H            1 ADP401   0.0000
    39 H12         40.6366    -2.8881   -14.2967 H            1 ADP401   0.0000
@<TRIPOS>BOND
     1    1    2      ar
     2    1    3      ar
     3    1    4      ar
     4    1    8       1
     5    5    6      ar
     6    5    7      ar
     7    5    8       1
     8    5    9       1
     9    9   10       1
    10   10   11       1
    11   11   12       1
    12   11   13       1
    13   12   17       1
    14   13   14       1
    15   13   15       1
    16   15   16       1
    17   15   17       1
    18   17   18       1
    19   18   19       1
    20   18   27       1
    21   19   20       2
    22   20   21       1
    23   21   22      ar
    24   21   27      ar
    25   22   23       1
    26   22   24      ar
    27   24   25      ar
    28   25   26      ar
    29   26   27      ar
    30   25   39       1
    31   23   38       1
    32   23   37       1
    33   10   28       1
    34   10   29       1
    35   11   30       1
    36   13   31       1
    37   14   32       1
    38   15   33       1
    39   16   34       1
    40   17   35       1
    41   19   36       1
@<TRIPOS>SUBSTRUCTURE
     1 ADP401      1 GROUP             4 C     ADP     0 **** ADP C 401
