@<TRIPOS>MOLECULE
3gwz_SAH_2_ligand
   46    48     1     0     0
SMALL
NO_CHARGES


@<TRIPOS>ATOM
     1 N           17.4820   142.1820     1.5750 N.4          1 SAH351   1.0000
     2 CA          17.1960   141.3510     0.3640 C.3          1 SAH351   0.0000
     3 CB          18.1870   140.1860     0.2060 C.3          1 SAH351   0.0000
     4 CG          18.2330   139.2020     1.3840 C.3          1 SAH351   0.0000
     5 SD          19.2310   137.7880     0.9760 S.3          1 SAH351   0.0000
     6 C           15.7800   140.8460     0.4400 C.2          1 SAH351   0.0000
     7 O           15.1430   140.8530     1.5000 O.co2        1 SAH351   0.0000
     8 OXT         15.2160   140.4150    -0.5690 O.co2        1 SAH351  -1.0000
     9 C5'         20.7860   138.2620     1.6900 C.3          1 SAH351   0.0000
    10 C4'         21.5720   139.2350     0.7890 C.3          1 SAH351   0.0000
    11 O4'         22.7590   139.7040     1.4530 O.3          1 SAH351   0.0000
    12 C3'         22.0500   138.6720    -0.5550 C.3          1 SAH351   0.0000
    13 O3'         21.4140   139.3890    -1.6250 O.3          1 SAH351   0.0000
    14 C2'         23.5520   138.9150    -0.6010 C.3          1 SAH351   0.0000
    15 O2'         23.9530   139.4450    -1.8650 O.3          1 SAH351   0.0000
    16 C1'         23.7650   139.9670     0.4720 C.3          1 SAH351   0.0000
    17 N9          25.1050   139.9330     1.1010 N.pl3        1 SAH351   0.0000
    18 C8          25.6570   138.9100     1.7790 C.2          1 SAH351   0.0000
    19 N7          26.8920   139.2460     2.2340 N.2          1 SAH351   0.0000
    20 C5          27.1430   140.5120     1.8440 C.ar         1 SAH351   0.0000
    21 C6          28.2580   141.4760     1.9920 C.ar         1 SAH351   0.0000
    22 N6          29.3890   141.1410     2.6630 N.pl3        1 SAH351   0.0000
    23 N1          28.1130   142.6980     1.4290 N.ar         1 SAH351   0.0000
    24 C2          26.9950   143.0350     0.7590 C.ar         1 SAH351   0.0000
    25 N3          25.9440   142.2130     0.5910 N.ar         1 SAH351   0.0000
    26 C4          25.9580   140.9600     1.1030 C.ar         1 SAH351   0.0000
    27 H1          16.8144   142.9240     1.6353 H            1 SAH351   0.0000
    28 H2          17.4203   141.6107     2.3934 H            1 SAH351   0.0000
    29 HA          17.2744   141.9379    -0.4419 H            1 SAH351   0.0000
    30 HB1         19.1021   140.5720     0.0895 H            1 SAH351   0.0000
    31 HB2         17.9342   139.6740    -0.6150 H            1 SAH351   0.0000
    32 HG1         17.3039   138.8989     1.5960 H            1 SAH351   0.0000
    33 HG2         18.6239   139.6615     2.1815 H            1 SAH351   0.0000
    34 H5'1        21.3375   137.4403     1.8337 H            1 SAH351   0.0000
    35 H5'2        20.6139   138.7060     2.5693 H            1 SAH351   0.0000
    36 H4'         20.9882   140.0254     0.6035 H            1 SAH351   0.0000
    37 H3'         21.8495   137.6944    -0.6184 H            1 SAH351   0.0000
    38 H12         21.6526   140.3583    -1.5648 H            1 SAH351   0.0000
    39 H2'         24.0566   138.0785    -0.3873 H            1 SAH351   0.0000
    40 H14         23.9150   140.4438    -1.8349 H            1 SAH351   0.0000
    41 H1'         23.6103   140.8731     0.0783 H            1 SAH351   0.0000
    42 H16         25.2181   138.0238     1.9275 H            1 SAH351   0.0000
    43 H17         30.1319   141.8043     2.7533 H            1 SAH351   0.0000
    44 H18         29.4795   140.2308     3.0672 H            1 SAH351   0.0000
    45 H19         26.9429   143.9515     0.3625 H            1 SAH351   0.0000
    46 H20         18.4025   142.5666     1.5056 H            1 SAH351   0.0000
@<TRIPOS>BOND
     1    1    2       1
     2    2    3       1
     3    2    6       1
     4    3    4       1
     5    4    5       1
     6    5    9       1
     7    6    7      ar
     8    6    8      ar
     9    9   10       1
    10   10   11       1
    11   10   12       1
    12   11   16       1
    13   12   13       1
    14   12   14       1
    15   14   15       1
    16   14   16       1
    17   16   17       1
    18   17   18       1
    19   17   26       1
    20   18   19       2
    21   19   20       1
    22   20   21      ar
    23   20   26      ar
    24   21   22       1
    25   21   23      ar
    26   23   24      ar
    27   24   25      ar
    28   25   26      ar
    29    1   27       1
    30    1   28       1
    31    2   29       1
    32    3   30       1
    33    3   31       1
    34    4   32       1
    35    4   33       1
    36    1   46       1
    37    9   34       1
    38    9   35       1
    39   10   36       1
    40   12   37       1
    41   13   38       1
    42   14   39       1
    43   15   40       1
    44   16   41       1
    45   18   42       1
    46   22   43       1
    47   22   44       1
    48   24   45       1
@<TRIPOS>SUBSTRUCTURE
     1 SAH351      1 GROUP             4 B     SAH     0 **** SAH B 351
