@<TRIPOS>MOLECULE
1u3c_FAD_2_ligand
   84    89     1     0     0
SMALL
NO_CHARGES


@<TRIPOS>ATOM
     1 PA          68.3680    -4.7870    72.1570 P.3          1 FAD510   0.0000
     2 O1A         67.9220    -5.4180    70.9020 O.co2        1 FAD510   0.0000
     3 O2A         69.5220    -5.3760    72.8620 O.co2        1 FAD510  -1.0000
     4 O5B         68.6780    -3.2240    71.8650 O.3          1 FAD510   0.0000
     5 C5B         69.2610    -2.3860    72.8640 C.3          1 FAD510   0.0000
     6 C4B         68.2760    -1.3150    73.3450 C.3          1 FAD510   0.0000
     7 O4B         67.7280    -0.5800    72.2350 O.3          1 FAD510   0.0000
     8 C3B         67.0450    -1.9160    74.0150 C.3          1 FAD510   0.0000
     9 O3B         67.3570    -2.2850    75.3600 O.3          1 FAD510   0.0000
    10 C2B         66.1650    -0.6690    74.0290 C.3          1 FAD510   0.0000
    11 O2B         66.6450     0.2540    75.0150 O.3          1 FAD510   0.0000
    12 C1B         66.4220    -0.1190    72.6270 C.3          1 FAD510   0.0000
    13 N9A         65.4500    -0.6610    71.6530 N.pl3        1 FAD510   0.0000
    14 C8A         65.6140    -1.7490    70.9010 C.2          1 FAD510   0.0000
    15 N7A         64.5700    -1.8790    70.0800 N.2          1 FAD510   0.0000
    16 C5A         63.7330    -0.8760    70.3180 C.ar         1 FAD510   0.0000
    17 C6A         62.4910    -0.5220    69.8020 C.ar         1 FAD510   0.0000
    18 N6A         61.9270    -1.2360    68.8340 N.pl3        1 FAD510   0.0000
    19 N1A         61.8430     0.6070    70.3240 N.ar         1 FAD510   0.0000
    20 C2A         62.4620     1.3450    71.3420 C.ar         1 FAD510   0.0000
    21 N3A         63.6450     0.9780    71.8040 N.ar         1 FAD510   0.0000
    22 C4A         64.2880    -0.0960    71.3260 C.ar         1 FAD510   0.0000
    23 N1          61.1170    -1.2780    74.8940 N.2          1 FAD510   0.0000
    24 C2          61.2410    -0.8350    76.2170 C.2          1 FAD510   0.0000
    25 O2          62.3310    -0.4630    76.6490 O.2          1 FAD510   0.0000
    26 N3          60.0950    -0.7350    77.0180 N.pl3        1 FAD510   0.0000
    27 C4          58.8390    -1.0580    76.4900 C.2          1 FAD510   0.0000
    28 O4          57.8400    -0.9470    77.1930 O.2          1 FAD510   0.0000
    29 C4X         58.7240    -1.4840    75.1670 C.2          1 FAD510   0.0000
    30 N5          57.4640    -1.7670    74.6270 N.2          1 FAD510   0.0000
    31 C5X         57.3320    -2.1790    73.2930 C.ar         1 FAD510   0.0000
    32 C6          56.0750    -2.4220    72.7640 C.ar         1 FAD510   0.0000
    33 C7          55.9310    -2.8060    71.4340 C.ar         1 FAD510   0.0000
    34 C7M         54.5290    -2.9930    70.8500 C.3          1 FAD510   0.0000
    35 C8          57.0690    -2.9620    70.6380 C.ar         1 FAD510   0.0000
    36 C8M         56.9540    -3.4540    69.1960 C.3          1 FAD510   0.0000
    37 C9          58.3260    -2.7060    71.1700 C.ar         1 FAD510   0.0000
    38 C9A         58.4770    -2.3060    72.4950 C.ar         1 FAD510   0.0000
    39 N10         59.7390    -2.0120    73.0290 N.pl3        1 FAD510   0.0000
    40 C10         59.8600    -1.6000    74.3710 C.2          1 FAD510   0.0000
    41 C1'         60.9510    -2.0920    72.1790 C.3          1 FAD510   0.0000
    42 C2'         61.7920    -3.3680    72.2510 C.3          1 FAD510   0.0000
    43 O2'         60.9800    -4.5220    72.0370 O.3          1 FAD510   0.0000
    44 C3'         62.5590    -3.5290    73.5720 C.3          1 FAD510   0.0000
    45 O3'         63.2650    -2.3230    73.8600 O.3          1 FAD510   0.0000
    46 C4'         63.5580    -4.6850    73.4430 C.3          1 FAD510   0.0000
    47 O4'         62.8480    -5.8860    73.1350 O.3          1 FAD510   0.0000
    48 C5'         64.3870    -4.9030    74.7080 C.3          1 FAD510   0.0000
    49 O5'         65.3600    -5.9350    74.4930 O.3          1 FAD510   0.0000
    50 P           66.9400    -5.6220    74.4910 P.3          1 FAD510   0.0000
    51 O1P         67.2250    -4.8240    75.7050 O.co2        1 FAD510   0.0000
    52 O2P         67.6730    -6.8960    74.3190 O.co2        1 FAD510  -1.0000
    53 O3P         67.1100    -4.7090    73.1730 O.3          1 FAD510   0.0000
    54 H5B1        70.0677    -1.9365    72.4805 H            1 FAD510   0.0000
    55 H5B2        69.5329    -2.9506    73.6433 H            1 FAD510   0.0000
    56 H4B         68.7349    -0.6885    73.9750 H            1 FAD510   0.0000
    57 H3B         66.6452    -2.6670    73.4895 H            1 FAD510   0.0000
    58 H5          67.2116    -3.2673    75.4784 H            1 FAD510   0.0000
    59 H2B         65.2011    -0.8953    74.1691 H            1 FAD510   0.0000
    60 H7          65.8789     0.7878    75.3728 H            1 FAD510   0.0000
    61 H1B         66.3911     0.8805    72.6325 H            1 FAD510   0.0000
    62 H8A         66.3964    -2.3703    70.9450 H            1 FAD510   0.0000
    63 H6A1        61.0335    -0.9700    68.4722 H            1 FAD510   0.0000
    64 H6A2        62.3960    -2.0394    68.4671 H            1 FAD510   0.0000
    65 H2A         62.0075     2.1516    71.7200 H            1 FAD510   0.0000
    66 H13         60.1746    -0.4326    77.9678 H            1 FAD510   0.0000
    67 H14         55.2652    -2.3208    73.3419 H            1 FAD510   0.0000
    68 H7M1        54.6012    -3.2674    69.8911 H            1 FAD510   0.0000
    69 H7M2        54.0456    -3.7016    71.3640 H            1 FAD510   0.0000
    70 H7M3        54.0240    -2.1322    70.9132 H            1 FAD510   0.0000
    71 H8M1        57.8651    -3.5028    68.7868 H            1 FAD510   0.0000
    72 H8M2        56.5350    -4.3619    69.1860 H            1 FAD510   0.0000
    73 H8M3        56.3866    -2.8192    68.6715 H            1 FAD510   0.0000
    74 H21         59.1355    -2.8106    70.5923 H            1 FAD510   0.0000
    75 H1'1        61.5448    -1.3290    72.4343 H            1 FAD510   0.0000
    76 H1'2        60.6568    -1.9822    71.2296 H            1 FAD510   0.0000
    77 H2'         62.4650    -3.3296    71.5124 H            1 FAD510   0.0000
    78 H25         60.9548    -4.7354    71.0604 H            1 FAD510   0.0000
    79 H3'         61.9147    -3.7244    74.3114 H            1 FAD510   0.0000
    80 H27         62.6822    -1.7166    74.4010 H            1 FAD510   0.0000
    81 H4'         64.1807    -4.4826    72.6872 H            1 FAD510   0.0000
    82 H29         62.0241    -5.6620    72.6145 H            1 FAD510   0.0000
    83 H5'1        63.7815    -5.1713    75.4572 H            1 FAD510   0.0000
    84 H5'2        64.8554    -4.0522    74.9463 H            1 FAD510   0.0000
@<TRIPOS>BOND
     1    1    2      ar
     2    1    3      ar
     3    1    4       1
     4    1   53       1
     5    4    5       1
     6    5    6       1
     7    6    7       1
     8    6    8       1
     9    7   12       1
    10    8    9       1
    11    8   10       1
    12   10   11       1
    13   10   12       1
    14   12   13       1
    15   13   14       1
    16   13   22       1
    17   14   15       2
    18   15   16       1
    19   16   17      ar
    20   16   22      ar
    21   17   18       1
    22   17   19      ar
    23   19   20      ar
    24   20   21      ar
    25   21   22      ar
    26   23   24       1
    27   23   40       2
    28   24   25       2
    29   24   26       1
    30   26   27       1
    31   27   28       2
    32   27   29       1
    33   29   30       2
    34   29   40       1
    35   30   31       1
    36   31   32      ar
    37   31   38      ar
    38   32   33      ar
    39   33   34       1
    40   33   35      ar
    41   35   36       1
    42   35   37      ar
    43   37   38      ar
    44   38   39       1
    45   39   40       1
    46   39   41       1
    47   41   42       1
    48   42   43       1
    49   42   44       1
    50   44   45       1
    51   44   46       1
    52   46   47       1
    53   46   48       1
    54   48   49       1
    55   49   50       1
    56   50   51      ar
    57   50   52      ar
    58   50   53       1
    59   48   84       1
    60    5   54       1
    61    5   55       1
    62    6   56       1
    63    8   57       1
    64    9   58       1
    65   10   59       1
    66   11   60       1
    67   12   61       1
    68   14   62       1
    69   18   63       1
    70   18   64       1
    71   20   65       1
    72   26   66       1
    73   32   67       1
    74   34   68       1
    75   34   69       1
    76   34   70       1
    77   36   71       1
    78   36   72       1
    79   36   73       1
    80   37   74       1
    81   41   75       1
    82   41   76       1
    83   42   77       1
    84   43   78       1
    85   44   79       1
    86   45   80       1
    87   46   81       1
    88   47   82       1
    89   48   83       1
@<TRIPOS>SUBSTRUCTURE
     1 FAD510      1 GROUP             4 A     FAD     0 **** FAD A 510
