@<TRIPOS>MOLECULE
3ec1_GDP_2_ligand
   40    42     1     0     0
SMALL
NO_CHARGES


@<TRIPOS>ATOM
     1 PB          20.0940    49.6850   -53.6650 P.3          1 GDP900   0.0000
     2 O1B         19.8750    50.2330   -54.9970 O.co2        1 GDP900   0.0000
     3 O2B         21.3230    50.1160   -52.7230 O.co2        1 GDP900  -1.0000
     4 O3B         19.3520    48.2780   -53.3240 O.co2        1 GDP900  -1.0000
     5 O3A         21.2750    48.7480   -54.3640 O.3          1 GDP900   0.0000
     6 PA          20.6950    47.9020   -55.6160 P.3          1 GDP900   0.0000
     7 O1A         20.8520    48.2880   -57.0280 O.co2        1 GDP900   0.0000
     8 O2A         20.3920    46.3670   -55.2440 O.co2        1 GDP900  -1.0000
     9 O5'         22.1870    47.2760   -55.7660 O.3          1 GDP900   0.0000
    10 C5'         22.3170    46.4390   -56.9760 C.3          1 GDP900   0.0000
    11 C4'         23.6980    45.7850   -56.9200 C.3          1 GDP900   0.0000
    12 O4'         23.5050    44.6970   -55.9270 O.3          1 GDP900   0.0000
    13 C3'         24.1690    45.0060   -58.1840 C.3          1 GDP900   0.0000
    14 O3'         25.5590    45.2590   -58.3950 O.3          1 GDP900   0.0000
    15 C2'         23.9180    43.5170   -57.9720 C.3          1 GDP900   0.0000
    16 O2'         25.1340    42.7580   -58.0280 O.3          1 GDP900   0.0000
    17 C1'         23.2420    43.4070   -56.6290 C.3          1 GDP900   0.0000
    18 N9          21.8480    43.1030   -57.0300 N.pl3        1 GDP900   0.0000
    19 C8          20.7370    43.8990   -57.0070 C.2          1 GDP900   0.0000
    20 N7          19.7010    43.2340   -57.4670 N.2          1 GDP900   0.0000
    21 C5          20.0860    41.9820   -57.7940 C.2          1 GDP900   0.0000
    22 C6          19.4290    40.8420   -58.3380 C.2          1 GDP900   0.0000
    23 O6          18.2390    40.8680   -58.5990 O.2          1 GDP900   0.0000
    24 N1          20.1540    39.7100   -58.5480 N.pl3        1 GDP900   0.0000
    25 C2          21.4910    39.6890   -58.2520 C.2          1 GDP900   0.0000
    26 N2          22.2120    38.5410   -58.4770 N.pl3        1 GDP900   0.0000
    27 N3          22.1070    40.7430   -57.7580 N.2          1 GDP900   0.0000
    28 C4          21.4540    41.8870   -57.5130 C.2          1 GDP900   0.0000
    29 H5'1        22.2384    47.0060   -57.7960 H            1 GDP900   0.0000
    30 H5'2        21.6047    45.7372   -56.9864 H            1 GDP900   0.0000
    31 H4'         24.3942    46.4346   -56.6147 H            1 GDP900   0.0000
    32 H3'         23.6503    45.3198   -58.9793 H            1 GDP900   0.0000
    33 H5          26.0641    44.3967   -58.3584 H            1 GDP900   0.0000
    34 H2'         23.2938    43.1868   -58.6800 H            1 GDP900   0.0000
    35 H7          25.0747    42.0876   -58.7677 H            1 GDP900   0.0000
    36 H1'         23.6269    42.6447   -56.1087 H            1 GDP900   0.0000
    37 H9          20.7157    44.8464   -56.6877 H            1 GDP900   0.0000
    38 H10         19.7108    38.8937   -58.9183 H            1 GDP900   0.0000
    39 H11         23.1888    38.5143   -58.2646 H            1 GDP900   0.0000
    40 H12         21.7599    37.7323   -58.8532 H            1 GDP900   0.0000
@<TRIPOS>BOND
     1    1    2      ar
     2    1    3      ar
     3    1    4      ar
     4    1    5       1
     5    5    6       1
     6    6    7      ar
     7    6    8      ar
     8    6    9       1
     9    9   10       1
    10   10   11       1
    11   11   12       1
    12   11   13       1
    13   12   17       1
    14   13   14       1
    15   13   15       1
    16   15   16       1
    17   15   17       1
    18   17   18       1
    19   18   19       1
    20   18   28       1
    21   19   20       2
    22   20   21       1
    23   21   22       1
    24   21   28       2
    25   22   23       2
    26   22   24       1
    27   24   25       1
    28   25   26       1
    29   25   27       2
    30   27   28       1
    31   26   40       1
    32   26   39       1
    33   24   38       1
    34   10   29       1
    35   10   30       1
    36   11   31       1
    37   13   32       1
    38   14   33       1
    39   15   34       1
    40   16   35       1
    41   17   36       1
    42   19   37       1
@<TRIPOS>SUBSTRUCTURE
     1 GDP900      1 GROUP             4 B     GDP     0 **** GDP B 900
