@<TRIPOS>MOLECULE
4e2s_UGY_12_ligand
   13    12     1     0     0
SMALL
NO_CHARGES


@<TRIPOS>ATOM
     1 OXT        114.7250    34.3910    93.2580 O.co2        1 UGY302   0.0000
     2 C          114.8330    33.4670    92.4550 C.2          1 UGY302   0.0000
     3 O          114.5790    33.6980    91.1650 O.co2        1 UGY302  -1.0000
     4 CA         115.2450    32.0930    92.9250 C.2          1 UGY302   0.0000
     5 N          114.2120    31.6370    93.8560 N.pl3        1 UGY302   0.0000
     6 NB         115.3480    31.1150    91.8070 N.2          1 UGY302   0.0000
     7 CG         115.5020    29.7600    91.9780 C.2          1 UGY302   0.0000
     8 OE         115.5640    29.2310    93.1000 O.2          1 UGY302   0.0000
     9 NE         115.5870    29.0020    90.8780 N.am         1 UGY302   0.0000
    10 H1         114.2906    30.7392    94.2894 H            1 UGY302   0.0000
    11 HE1        115.6995    28.0118    90.9606 H            1 UGY302   0.0000
    12 HE2        115.5380    29.4259    89.9736 H            1 UGY302   0.0000
    13 H4         113.4276    32.2232    94.0587 H            1 UGY302   0.0000
@<TRIPOS>BOND
     1    1    2      ar
     2    2    3      ar
     3    2    4       1
     4    4    5       1
     5    4    6       2
     6    6    7       1
     7    7    8       2
     8    7    9      am
     9    9   12       1
    10    5   10       1
    11    5   13       1
    12    9   11       1
@<TRIPOS>SUBSTRUCTURE
     1 UGY302      1 GROUP             4 L     UGY     0 **** UGY L 302
