@<TRIPOS>MOLECULE
3pff_ADP_1_ligand
   39    41     1     0     0
SMALL
NO_CHARGES


@<TRIPOS>ATOM
     1 PB          29.9360    49.3660    58.2860 P.3          1 ADP833   0.0000
     2 O1B         29.8210    48.0130    57.6390 O.co2        1 ADP833   0.0000
     3 O2B         29.9050    50.4660    57.2780 O.co2        1 ADP833  -1.0000
     4 O3B         29.0050    49.6260    59.4680 O.co2        1 ADP833  -1.0000
     5 PA          32.5390    50.3790    59.2090 P.3          1 ADP833   0.0000
     6 O1A         32.2610    51.6540    58.4750 O.co2        1 ADP833   0.0000
     7 O2A         33.8930    49.7340    59.0980 O.co2        1 ADP833  -1.0000
     8 O3A         31.4240    49.2350    58.9260 O.3          1 ADP833   0.0000
     9 O5'         32.3570    50.7090    60.7690 O.3          1 ADP833   0.0000
    10 C5'         31.1600    51.3090    61.2310 C.3          1 ADP833   0.0000
    11 C4'         31.5590    52.5000    62.0820 C.3          1 ADP833   0.0000
    12 O4'         32.5000    52.0910    63.0800 O.3          1 ADP833   0.0000
    13 C3'         32.2710    53.5600    61.2700 C.3          1 ADP833   0.0000
    14 O3'         31.3820    54.5190    60.7040 O.3          1 ADP833   0.0000
    15 C2'         33.1970    54.2080    62.2740 C.3          1 ADP833   0.0000
    16 O2'         32.4900    55.2800    62.9000 O.3          1 ADP833   0.0000
    17 C1'         33.4670    53.1240    63.3010 C.3          1 ADP833   0.0000
    18 N9          34.8110    52.5380    63.0690 N.pl3        1 ADP833   0.0000
    19 C8          35.0750    51.5240    62.2150 C.2          1 ADP833   0.0000
    20 N7          36.3950    51.2080    62.2340 N.2          1 ADP833   0.0000
    21 C5          36.9960    52.0320    63.1130 C.ar         1 ADP833   0.0000
    22 C6          38.3790    52.2280    63.6050 C.ar         1 ADP833   0.0000
    23 N6          39.3910    51.4590    63.1390 N.pl3        1 ADP833   0.0000
    24 N1          38.5900    53.1900    64.5260 N.ar         1 ADP833   0.0000
    25 C2          37.5860    53.9560    64.9860 C.ar         1 ADP833   0.0000
    26 N3          36.3100    53.8310    64.5830 N.ar         1 ADP833   0.0000
    27 C4          35.9570    52.9030    63.6660 C.ar         1 ADP833   0.0000
    28 H5'1        30.6377    50.6554    61.7787 H            1 ADP833   0.0000
    29 H5'2        30.6062    51.6116    60.4553 H            1 ADP833   0.0000
    30 H4'         30.7494    52.8926    62.5184 H            1 ADP833   0.0000
    31 H3'         32.8074    53.1273    60.5454 H            1 ADP833   0.0000
    32 H5          31.8503    55.3985    60.6194 H            1 ADP833   0.0000
    33 H2'         34.0418    54.5260    61.8437 H            1 ADP833   0.0000
    34 H7          32.9713    56.1402    62.7312 H            1 ADP833   0.0000
    35 H1'         33.3930    53.4876    64.2296 H            1 ADP833   0.0000
    36 H9          34.3904    51.0683    61.6461 H            1 ADP833   0.0000
    37 H10         40.3217    51.5987    63.4771 H            1 ADP833   0.0000
    38 H11         39.2079    50.7513    62.4567 H            1 ADP833   0.0000
    39 H12         37.8002    54.6576    65.6656 H            1 ADP833   0.0000
@<TRIPOS>BOND
     1    1    2      ar
     2    1    3      ar
     3    1    4      ar
     4    1    8       1
     5    5    6      ar
     6    5    7      ar
     7    5    8       1
     8    5    9       1
     9    9   10       1
    10   10   11       1
    11   11   12       1
    12   11   13       1
    13   12   17       1
    14   13   14       1
    15   13   15       1
    16   15   16       1
    17   15   17       1
    18   17   18       1
    19   18   19       1
    20   18   27       1
    21   19   20       2
    22   20   21       1
    23   21   22      ar
    24   21   27      ar
    25   22   23       1
    26   22   24      ar
    27   24   25      ar
    28   25   26      ar
    29   26   27      ar
    30   25   39       1
    31   23   38       1
    32   23   37       1
    33   10   28       1
    34   10   29       1
    35   11   30       1
    36   13   31       1
    37   14   32       1
    38   15   33       1
    39   16   34       1
    40   17   35       1
    41   19   36       1
@<TRIPOS>SUBSTRUCTURE
     1 ADP833      1 GROUP             4 A     ADP     0 **** ADP A 833
