@<TRIPOS>MOLECULE
4nd4_NAD_1_ligand
   70    74     1     0     0
SMALL
NO_CHARGES


@<TRIPOS>ATOM
     1 PA          15.5990    48.3640    66.7660 P.3          1 NAD401   0.0000
     2 O1A         14.6280    47.5640    67.5840 O.co2        1 NAD401   0.0000
     3 O2A         15.1810    48.8830    65.4170 O.co2        1 NAD401  -1.0000
     4 O5B         16.0700    49.6100    67.6490 O.3          1 NAD401   0.0000
     5 C5B         16.7980    50.6970    67.0980 C.3          1 NAD401   0.0000
     6 C4B         16.3860    51.9580    67.8410 C.3          1 NAD401   0.0000
     7 O4B         17.2820    53.0120    67.4980 O.3          1 NAD401   0.0000
     8 C3B         14.9800    52.4420    67.4900 C.3          1 NAD401   0.0000
     9 O3B         14.1510    52.5030    68.6570 O.3          1 NAD401   0.0000
    10 C2B         15.1790    53.8260    66.9020 C.3          1 NAD401   0.0000
    11 O2B         14.1610    54.7550    67.2840 O.3          1 NAD401   0.0000
    12 C1B         16.5350    54.2240    67.4550 C.3          1 NAD401   0.0000
    13 N9A         17.2290    55.2640    66.6640 N.pl3        1 NAD401   0.0000
    14 C8A         17.2180    55.4470    65.3280 C.2          1 NAD401   0.0000
    15 N7A         17.9780    56.5220    65.0000 N.2          1 NAD401   0.0000
    16 C5A         18.4800    57.0380    66.1320 C.ar         1 NAD401   0.0000
    17 C6A         19.3560    58.1690    66.5010 C.ar         1 NAD401   0.0000
    18 N6A         19.8690    58.9970    65.5590 N.pl3        1 NAD401   0.0000
    19 N1A         19.6320    58.3410    67.8140 N.ar         1 NAD401   0.0000
    20 C2A         19.1350    57.5360    68.7720 C.ar         1 NAD401   0.0000
    21 N3A         18.3320    56.4940    68.5000 N.ar         1 NAD401   0.0000
    22 C4A         17.9820    56.2010    67.2260 C.ar         1 NAD401   0.0000
    23 O3          16.9880    47.5530    66.5530 O.3          1 NAD401   0.0000
    24 PN          17.5620    46.4510    67.5880 P.3          1 NAD401   0.0000
    25 O1N         16.8810    45.1380    67.3240 O.co2        1 NAD401   0.0000
    26 O2N         17.5290    47.0150    68.9840 O.co2        1 NAD401  -1.0000
    27 O5D         19.1020    46.3610    67.1390 O.3          1 NAD401   0.0000
    28 C5D         19.9240    47.5150    67.2710 C.3          1 NAD401   0.0000
    29 C4D         21.2310    47.3410    66.5030 C.3          1 NAD401   0.0000
    30 O4D         22.0030    46.2840    67.0840 O.3          1 NAD401   0.0000
    31 C3D         21.0400    46.9670    65.0400 C.3          1 NAD401   0.0000
    32 O3D         21.9830    47.7090    64.2610 O.3          1 NAD401   0.0000
    33 C2D         21.3490    45.4800    64.9920 C.3          1 NAD401   0.0000
    34 O2D         21.7990    45.0340    63.7070 O.3          1 NAD401   0.0000
    35 C1D         22.4340    45.3880    66.0540 C.3          1 NAD401   0.0000
    36 N1N         22.7310    44.0570    66.6100 N.ar         1 NAD401   1.0000
    37 C2N         24.0150    43.8050    66.9180 C.ar         1 NAD401   0.0000
    38 C3N         24.4200    42.5830    67.4510 C.ar         1 NAD401   0.0000
    39 C7N         25.8590    42.3080    67.7980 C.2          1 NAD401   0.0000
    40 O7N         26.1880    41.1680    68.0910 O.2          1 NAD401   0.0000
    41 N7N         26.7690    43.2840    67.8100 N.am         1 NAD401   0.0000
    42 C4N         23.4540    41.6100    67.6720 C.ar         1 NAD401   0.0000
    43 C5N         22.1300    41.8820    67.3480 C.ar         1 NAD401   0.0000
    44 C6N         21.7870    43.1230    66.8180 C.ar         1 NAD401   0.0000
    45 H5B1        16.5851    50.7906    66.1254 H            1 NAD401   0.0000
    46 H5B2        17.7793    50.5411    67.2110 H            1 NAD401   0.0000
    47 H4B         16.4387    51.7904    68.8254 H            1 NAD401   0.0000
    48 H3B         14.5690    51.8361    66.8089 H            1 NAD401   0.0000
    49 H5          14.5523    53.1369    69.3182 H            1 NAD401   0.0000
    50 H2B         15.2250    53.7661    65.9049 H            1 NAD401   0.0000
    51 H7          14.4325    55.2188    68.1273 H            1 NAD401   0.0000
    52 H1B         16.4142    54.5593    68.3893 H            1 NAD401   0.0000
    53 H8A         16.7224    54.8744    64.6749 H            1 NAD401   0.0000
    54 H6A1        20.4600    59.7569    65.8296 H            1 NAD401   0.0000
    55 H6A2        19.6566    58.8481    64.5932 H            1 NAD401   0.0000
    56 H2A         19.3735    57.7214    69.7253 H            1 NAD401   0.0000
    57 H5D1        20.1295    47.6620    68.2385 H            1 NAD401   0.0000
    58 H5D2        19.4348    48.3089    66.9098 H            1 NAD401   0.0000
    59 H4D         21.7541    48.1917    66.5551 H            1 NAD401   0.0000
    60 H3D         20.1034    47.1498    64.7412 H            1 NAD401   0.0000
    61 H17         21.4943    48.2827    63.6037 H            1 NAD401   0.0000
    62 H2D         20.5470    44.9543    65.2754 H            1 NAD401   0.0000
    63 H19         21.8229    45.8085    63.0749 H            1 NAD401   0.0000
    64 H1D         23.2788    45.7531    65.6627 H            1 NAD401   0.0000
    65 H2N         24.7002    44.5160    66.7598 H            1 NAD401   0.0000
    66 H7N1        27.7194    43.0786    68.0435 H            1 NAD401   0.0000
    67 H7N2        26.5005    44.2208    67.5855 H            1 NAD401   0.0000
    68 H4N         23.7081    40.7239    68.0598 H            1 NAD401   0.0000
    69 H5N         21.4253    41.1879    67.4952 H            1 NAD401   0.0000
    70 H6N         20.8334    43.3205    66.5909 H            1 NAD401   0.0000
@<TRIPOS>BOND
     1    1    2      ar
     2    1    3      ar
     3    1    4       1
     4    1   23       1
     5    4    5       1
     6    5    6       1
     7    6    7       1
     8    6    8       1
     9    7   12       1
    10    8    9       1
    11    8   10       1
    12   10   11       1
    13   10   12       1
    14   12   13       1
    15   13   14       1
    16   13   22       1
    17   14   15       2
    18   15   16       1
    19   16   17      ar
    20   16   22      ar
    21   17   18       1
    22   17   19      ar
    23   19   20      ar
    24   20   21      ar
    25   21   22      ar
    26   23   24       1
    27   24   25      ar
    28   24   26      ar
    29   24   27       1
    30   27   28       1
    31   28   29       1
    32   29   30       1
    33   29   31       1
    34   30   35       1
    35   31   32       1
    36   31   33       1
    37   33   34       1
    38   33   35       1
    39   35   36       1
    40   36   37      ar
    41   36   44      ar
    42   37   38      ar
    43   38   39       1
    44   38   42      ar
    45   39   40       2
    46   39   41      am
    47   42   43      ar
    48   43   44      ar
    49   44   70       1
    50    5   45       1
    51    5   46       1
    52    6   47       1
    53    8   48       1
    54    9   49       1
    55   10   50       1
    56   11   51       1
    57   12   52       1
    58   14   53       1
    59   18   54       1
    60   18   55       1
    61   20   56       1
    62   43   69       1
    63   28   57       1
    64   28   58       1
    65   29   59       1
    66   31   60       1
    67   32   61       1
    68   33   62       1
    69   34   63       1
    70   35   64       1
    71   37   65       1
    72   41   66       1
    73   41   67       1
    74   42   68       1
@<TRIPOS>SUBSTRUCTURE
     1 NAD401      1 GROUP             4 A     NAD     0 **** NAD A 401
