@<TRIPOS>MOLECULE
1hso_PYZ_1_ligand
    9     9     1     0     0
SMALL
NO_CHARGES


@<TRIPOS>ATOM
     1 N1          10.3780     0.8220     5.7470 N.2          1 PYZ1378   0.0000
     2 N2          10.8800     2.0910     5.7210 N.pl3        1 PYZ1378   0.0000
     3 C3          11.0990     2.4880     4.4560 C.2          1 PYZ1378   0.0000
     4 C4          10.6970     1.3810     3.7660 C.2          1 PYZ1378   0.0000
     5 I4          10.7880     1.2910     1.7120 I            1 PYZ1378   0.0000
     6 C5          10.2420     0.3230     4.4970 C.2          1 PYZ1378   0.0000
     7 H1          11.4580     3.3564     4.1139 H            1 PYZ1378   0.0000
     8 H2           9.9040    -0.5683     4.1947 H            1 PYZ1378   0.0000
     9 H3          11.0600     2.6484     6.5315 H            1 PYZ1378   0.0000
@<TRIPOS>BOND
     1    1    2       1
     2    1    6       2
     3    2    3       1
     4    3    4       2
     5    4    5       1
     6    4    6       1
     7    6    8       1
     8    3    7       1
     9    2    9       1
@<TRIPOS>SUBSTRUCTURE
     1 PYZ1378     1 GROUP             4 A     PYZ     0 **** PYZ A1378
