@<TRIPOS>MOLECULE
1czn_FMN_1_ligand
   50    52     1     0     0
SMALL
NO_CHARGES


@<TRIPOS>ATOM
     1 N1          14.4700    21.9090    41.8210 N.2          1 FMN170   0.0000
     2 C2          15.3900    21.8800    42.8290 C.2          1 FMN170   0.0000
     3 O2          16.5890    22.0270    42.5780 O.2          1 FMN170   0.0000
     4 N3          14.9960    21.6510    44.1500 N.pl3        1 FMN170   0.0000
     5 C4          13.6890    21.3270    44.5370 C.2          1 FMN170   0.0000
     6 O4          13.4300    21.0580    45.7000 O.2          1 FMN170   0.0000
     7 C4A         12.6870    21.3300    43.4580 C.2          1 FMN170   0.0000
     8 N5          11.4160    21.1480    43.7670 N.2          1 FMN170   0.0000
     9 C5A         10.5120    21.2920    42.7350 C.ar         1 FMN170   0.0000
    10 C6           9.1100    21.2490    43.0640 C.ar         1 FMN170   0.0000
    11 C7           8.1640    21.4600    42.0690 C.ar         1 FMN170   0.0000
    12 C7M          6.7080    21.5060    42.4510 C.3          1 FMN170   0.0000
    13 C8           8.5490    21.6580    40.7070 C.ar         1 FMN170   0.0000
    14 C8M          7.5160    21.9150    39.6270 C.3          1 FMN170   0.0000
    15 C9           9.9100    21.6540    40.3610 C.ar         1 FMN170   0.0000
    16 C9A         10.8750    21.5080    41.3850 C.ar         1 FMN170   0.0000
    17 N10         12.2560    21.6600    41.1100 N.pl3        1 FMN170   0.0000
    18 C10         13.1770    21.6180    42.1140 C.2          1 FMN170   0.0000
    19 C1'         12.6370    21.9090    39.7390 C.3          1 FMN170   0.0000
    20 C2'         12.7710    20.6310    38.9170 C.3          1 FMN170   0.0000
    21 O2'         13.7750    19.7260    39.3840 O.3          1 FMN170   0.0000
    22 C3'         13.0440    20.9900    37.4880 C.3          1 FMN170   0.0000
    23 O3'         11.8740    21.5810    36.9100 O.3          1 FMN170   0.0000
    24 C4'         13.5760    19.8650    36.5840 C.3          1 FMN170   0.0000
    25 O4'         13.8250    20.3730    35.2730 O.3          1 FMN170   0.0000
    26 C5'         12.5960    18.6890    36.5180 C.3          1 FMN170   0.0000
    27 O5'         13.2310    17.5740    35.8300 O.3          1 FMN170   0.0000
    28 P           12.3880    16.2990    35.2900 P.3          1 FMN170   0.0000
    29 O1P         11.6840    16.6790    34.0590 O.co2        1 FMN170   0.0000
    30 O2P         11.6450    15.6760    36.3970 O.co2        1 FMN170  -1.0000
    31 O3P         13.5570    15.3290    34.8310 O.co2        1 FMN170  -1.0000
    32 H1          15.6915    21.7230    44.8649 H            1 FMN170   0.0000
    33 H2           8.8195    21.0682    44.0036 H            1 FMN170   0.0000
    34 H7M1         6.1538    21.6638    41.6337 H            1 FMN170   0.0000
    35 H7M2         6.4454    20.6363    42.8690 H            1 FMN170   0.0000
    36 H7M3         6.5580    22.2484    43.1039 H            1 FMN170   0.0000
    37 H8M1         7.9757    22.0273    38.7460 H            1 FMN170   0.0000
    38 H8M2         6.8855    21.1403    39.5776 H            1 FMN170   0.0000
    39 H8M3         7.0056    22.7468    39.8451 H            1 FMN170   0.0000
    40 H9          10.1923    21.7527    39.4068 H            1 FMN170   0.0000
    41 H1'1        13.5164    22.3850    39.7339 H            1 FMN170   0.0000
    42 H1'2        11.9415    22.4892    39.3152 H            1 FMN170   0.0000
    43 H2'         11.8924    20.1545    38.9490 H            1 FMN170   0.0000
    44 H13         13.5630    19.4475    40.3208 H            1 FMN170   0.0000
    45 H3'         13.7464    21.7017    37.5016 H            1 FMN170   0.0000
    46 H15         12.0868    22.5078    36.6007 H            1 FMN170   0.0000
    47 H4'         14.4400    19.5355    36.9647 H            1 FMN170   0.0000
    48 H17         14.1705    19.6373    34.6905 H            1 FMN170   0.0000
    49 H5'1        11.7747    18.9657    36.0191 H            1 FMN170   0.0000
    50 H5'2        12.3449    18.4106    37.4451 H            1 FMN170   0.0000
@<TRIPOS>BOND
     1    1    2       1
     2    1   18       2
     3    2    3       2
     4    2    4       1
     5    4    5       1
     6    5    6       2
     7    5    7       1
     8    7    8       2
     9    7   18       1
    10    8    9       1
    11    9   10      ar
    12    9   16      ar
    13   10   11      ar
    14   11   12       1
    15   11   13      ar
    16   13   14       1
    17   13   15      ar
    18   15   16      ar
    19   16   17       1
    20   17   18       1
    21   17   19       1
    22   19   20       1
    23   20   21       1
    24   20   22       1
    25   22   23       1
    26   22   24       1
    27   24   25       1
    28   24   26       1
    29   26   27       1
    30   27   28       1
    31   28   29      ar
    32   28   30      ar
    33   28   31      ar
    34    4   32       1
    35   10   33       1
    36   12   34       1
    37   12   35       1
    38   12   36       1
    39   14   37       1
    40   14   38       1
    41   14   39       1
    42   15   40       1
    43   19   41       1
    44   19   42       1
    45   20   43       1
    46   21   44       1
    47   22   45       1
    48   23   46       1
    49   24   47       1
    50   25   48       1
    51   26   49       1
    52   26   50       1
@<TRIPOS>SUBSTRUCTURE
     1 FMN170      1 GROUP             4 A     FMN     0 **** FMN A 170
