@<TRIPOS>MOLECULE
1wuw_TSU_1_ligand
   18    18     1     0     0
SMALL
NO_CHARGES


@<TRIPOS>ATOM
     1 S           52.8480    33.9200    11.6320 S.o2         1 TSU101   0.0000
     2 O1          53.2650    35.0900    10.9130 O.co2        1 TSU101   0.0000
     3 O2          51.3090    33.9910    11.8250 O.co2        1 TSU101   0.0000
     4 O3          53.5010    33.9010    13.0210 O.co2        1 TSU101  -1.0000
     5 C1          53.2420    32.5030    10.7310 C.ar         1 TSU101   0.0000
     6 C2          53.5220    31.3330    11.4180 C.ar         1 TSU101   0.0000
     7 C3          53.8100    30.1910    10.6760 C.ar         1 TSU101   0.0000
     8 C4          53.8180    30.2290     9.2890 C.ar         1 TSU101   0.0000
     9 C5          53.5090    31.4160     8.6110 C.ar         1 TSU101   0.0000
    10 C6          53.2510    32.5640     9.3460 C.ar         1 TSU101   0.0000
    11 C7          54.1860    28.9900     8.5180 C.3          1 TSU101   0.0000
    12 H1          53.5174    31.3096    12.4177 H            1 TSU101   0.0000
    13 H2          54.0135    29.3332    11.1481 H            1 TSU101   0.0000
    14 H3          53.4750    31.4352     7.6118 H            1 TSU101   0.0000
    15 H4          53.0726    33.4304     8.8795 H            1 TSU101   0.0000
    16 H5          54.1438    29.1826     7.5376 H            1 TSU101   0.0000
    17 H6          55.1138    28.7084     8.7628 H            1 TSU101   0.0000
    18 H7          53.5449    28.2557     8.7413 H            1 TSU101   0.0000
@<TRIPOS>BOND
     1    1    2      ar
     2    1    3      ar
     3    1    4      ar
     4    1    5       1
     5    5    6      ar
     6    5   10      ar
     7    6    7      ar
     8    7    8      ar
     9    8    9      ar
    10    8   11       1
    11    9   10      ar
    12   11   18       1
    13    6   12       1
    14    7   13       1
    15    9   14       1
    16   10   15       1
    17   11   16       1
    18   11   17       1
@<TRIPOS>SUBSTRUCTURE
     1 TSU101      1 GROUP             4 A     TSU     0 **** TSU A 101
