@<TRIPOS>MOLECULE
1e1n_FAD_1_ligand
   84    89     1     0     0
SMALL
NO_CHARGES


@<TRIPOS>ATOM
     1 PA          14.4250     3.3160     9.8540 P.3          1 FAD801   0.0000
     2 O1A         14.5750     3.6250    11.3030 O.co2        1 FAD801   0.0000
     3 O2A         15.3360     2.6370     9.0960 O.co2        1 FAD801  -1.0000
     4 O5B         14.4710     4.7290     9.2670 O.3          1 FAD801   0.0000
     5 C5B         13.4020     5.6240     8.8930 C.3          1 FAD801   0.0000
     6 C4B         13.9930     7.0130     8.6170 C.3          1 FAD801   0.0000
     7 O4B         13.0930     8.1050     9.0690 O.3          1 FAD801   0.0000
     8 C3B         15.3740     7.3800     9.2050 C.3          1 FAD801   0.0000
     9 O3B         16.4260     7.4580     8.2910 O.3          1 FAD801   0.0000
    10 C2B         15.1070     8.6190    10.0530 C.3          1 FAD801   0.0000
    11 O2B         16.1820     9.4920    10.0750 O.3          1 FAD801   0.0000
    12 C1B         13.9880     9.2500     9.2360 C.3          1 FAD801   0.0000
    13 N9A         13.2680    10.2110    10.0460 N.pl3        1 FAD801   0.0000
    14 C8A         12.9830    10.0630    11.3710 C.2          1 FAD801   0.0000
    15 N7A         12.3410    11.1040    11.8750 N.2          1 FAD801   0.0000
    16 C5A         12.2240    11.9830    10.8250 C.ar         1 FAD801   0.0000
    17 C6A         11.6180    13.3150    10.7480 C.ar         1 FAD801   0.0000
    18 N6A         11.0440    13.9120    11.7570 N.pl3        1 FAD801   0.0000
    19 N1A         11.6850    13.9090     9.5170 N.ar         1 FAD801   0.0000
    20 C2A         12.2910    13.2940     8.4590 C.ar         1 FAD801   0.0000
    21 N3A         12.8600    12.1020     8.4420 N.ar         1 FAD801   0.0000
    22 C4A         12.8070    11.4720     9.6590 C.ar         1 FAD801   0.0000
    23 N1          17.2830    -5.7630     9.9420 N.2          1 FAD801   0.0000
    24 C2          17.7750    -6.7270     9.1920 C.2          1 FAD801   0.0000
    25 O2          17.1180    -7.2350     8.3370 O.2          1 FAD801   0.0000
    26 N3          19.1230    -7.1550     9.3440 N.pl3        1 FAD801   0.0000
    27 C4          19.9390    -6.6510    10.2970 C.2          1 FAD801   0.0000
    28 O4          21.0800    -6.9910    10.4640 O.2          1 FAD801   0.0000
    29 C4X         19.3860    -5.6170    11.1270 C.2          1 FAD801   0.0000
    30 N5          20.1600    -5.0910    12.0640 N.2          1 FAD801   0.0000
    31 C5X         19.5980    -4.1340    12.8450 C.ar         1 FAD801   0.0000
    32 C6          20.4050    -3.5740    13.8410 C.ar         1 FAD801   0.0000
    33 C7          19.9150    -2.6150    14.6540 C.ar         1 FAD801   0.0000
    34 C7M         20.7380    -1.9490    15.7470 C.3          1 FAD801   0.0000
    35 C8          18.5530    -2.1650    14.5140 C.ar         1 FAD801   0.0000
    36 C8M         18.0490    -1.1070    15.4510 C.3          1 FAD801   0.0000
    37 C9          17.7500    -2.7070    13.5310 C.ar         1 FAD801   0.0000
    38 C9A         18.2660    -3.6790    12.7000 C.ar         1 FAD801   0.0000
    39 N10         17.5040    -4.2880    11.7080 N.pl3        1 FAD801   0.0000
    40 C10         18.0280    -5.2200    10.9150 C.2          1 FAD801   0.0000
    41 C1'         16.0640    -3.9660    11.5820 C.3          1 FAD801   0.0000
    42 C2'         16.0580    -2.7990    10.5000 C.3          1 FAD801   0.0000
    43 O2'         17.0720    -1.9370    10.9730 O.3          1 FAD801   0.0000
    44 C3'         14.6560    -2.2500    10.4720 C.3          1 FAD801   0.0000
    45 O3'         13.9090    -3.3660     9.8910 O.3          1 FAD801   0.0000
    46 C4'         14.4800    -1.1250     9.4580 C.3          1 FAD801   0.0000
    47 O4'         15.6090    -0.2720     9.2140 O.3          1 FAD801   0.0000
    48 C5'         13.2630    -0.2610     9.8930 C.3          1 FAD801   0.0000
    49 O5'         12.9250     0.6340     8.6070 O.3          1 FAD801   0.0000
    50 P           12.2080     1.9700     8.6750 P.3          1 FAD801   0.0000
    51 O1P         12.3040     2.4110     7.1810 O.co2        1 FAD801   0.0000
    52 O2P         10.9400     1.8820     9.2320 O.co2        1 FAD801  -1.0000
    53 O3P         12.9100     2.8120     9.6510 O.3          1 FAD801   0.0000
    54 H5B1        12.7375     5.6835     9.6379 H            1 FAD801   0.0000
    55 H5B2        12.9497     5.2816     8.0695 H            1 FAD801   0.0000
    56 H4B         14.0720     7.0990     7.6238 H            1 FAD801   0.0000
    57 H3B         15.6107     6.6480     9.8439 H            1 FAD801   0.0000
    58 H5          16.2211     8.1569     7.6057 H            1 FAD801   0.0000
    59 H2B         14.8039     8.3796    10.9754 H            1 FAD801   0.0000
    60 H7          16.3841     9.7954     9.1438 H            1 FAD801   0.0000
    61 H1B         14.3043     9.6297     8.3666 H            1 FAD801   0.0000
    62 H8A         13.2324     9.2547    11.9043 H            1 FAD801   0.0000
    63 H6A1        10.6483    14.8229    11.6398 H            1 FAD801   0.0000
    64 H6A2        11.0000    13.4585    12.6472 H            1 FAD801   0.0000
    65 H2A         12.3057    13.8042     7.5991 H            1 FAD801   0.0000
    66 H13         19.4799    -7.8536     8.7239 H            1 FAD801   0.0000
    67 H14         21.3488    -3.8856    13.9509 H            1 FAD801   0.0000
    68 H7M1        20.1756    -1.2723    16.2222 H            1 FAD801   0.0000
    69 H7M2        21.0488    -2.6409    16.3986 H            1 FAD801   0.0000
    70 H7M3        21.5304    -1.4961    15.3384 H            1 FAD801   0.0000
    71 H8M1        17.0952    -0.8978    15.2355 H            1 FAD801   0.0000
    72 H8M2        18.1132    -1.4376    16.3926 H            1 FAD801   0.0000
    73 H8M3        18.6027    -0.2805    15.3494 H            1 FAD801   0.0000
    74 H21         16.8050    -2.3984    13.4226 H            1 FAD801   0.0000
    75 H1'1        15.6875    -3.6514    12.4534 H            1 FAD801   0.0000
    76 H1'2        15.5445    -4.7578    11.2609 H            1 FAD801   0.0000
    77 H2'         16.3047    -3.1609     9.6010 H            1 FAD801   0.0000
    78 H25         16.8588    -0.9959    10.7105 H            1 FAD801   0.0000
    79 H3'         14.3247    -2.0003    11.3819 H            1 FAD801   0.0000
    80 H27         13.5857    -3.9672    10.6218 H            1 FAD801   0.0000
    81 H4'         14.2404    -1.5512     8.5857 H            1 FAD801   0.0000
    82 H29         15.3694     0.6716     9.4425 H            1 FAD801   0.0000
    83 H5'1        13.5011     0.3173    10.6733 H            1 FAD801   0.0000
    84 H5'2        12.4853    -0.8418    10.1336 H            1 FAD801   0.0000
@<TRIPOS>BOND
     1    1    2      ar
     2    1    3      ar
     3    1    4       1
     4    1   53       1
     5    4    5       1
     6    5    6       1
     7    6    7       1
     8    6    8       1
     9    7   12       1
    10    8    9       1
    11    8   10       1
    12   10   11       1
    13   10   12       1
    14   12   13       1
    15   13   14       1
    16   13   22       1
    17   14   15       2
    18   15   16       1
    19   16   17      ar
    20   16   22      ar
    21   17   18       1
    22   17   19      ar
    23   19   20      ar
    24   20   21      ar
    25   21   22      ar
    26   23   24       1
    27   23   40       2
    28   24   25       2
    29   24   26       1
    30   26   27       1
    31   27   28       2
    32   27   29       1
    33   29   30       2
    34   29   40       1
    35   30   31       1
    36   31   32      ar
    37   31   38      ar
    38   32   33      ar
    39   33   34       1
    40   33   35      ar
    41   35   36       1
    42   35   37      ar
    43   37   38      ar
    44   38   39       1
    45   39   40       1
    46   39   41       1
    47   41   42       1
    48   42   43       1
    49   42   44       1
    50   44   45       1
    51   44   46       1
    52   46   47       1
    53   46   48       1
    54   48   49       1
    55   49   50       1
    56   50   51      ar
    57   50   52      ar
    58   50   53       1
    59   48   84       1
    60    5   54       1
    61    5   55       1
    62    6   56       1
    63    8   57       1
    64    9   58       1
    65   10   59       1
    66   11   60       1
    67   12   61       1
    68   14   62       1
    69   18   63       1
    70   18   64       1
    71   20   65       1
    72   26   66       1
    73   32   67       1
    74   34   68       1
    75   34   69       1
    76   34   70       1
    77   36   71       1
    78   36   72       1
    79   36   73       1
    80   37   74       1
    81   41   75       1
    82   41   76       1
    83   42   77       1
    84   43   78       1
    85   44   79       1
    86   45   80       1
    87   46   81       1
    88   47   82       1
    89   48   83       1
@<TRIPOS>SUBSTRUCTURE
     1 FAD801      1 GROUP             4 A     FAD     0 **** FAD A 801
