@<TRIPOS>MOLECULE
2qe6_SAM_2_ligand
   50    52     1     0     0
SMALL
NO_CHARGES


@<TRIPOS>ATOM
     1 N           10.2780   -19.8390     0.9700 N.4          1 SAM400   1.0000
     2 CA           8.9420   -20.4310     0.5450 C.3          1 SAM400   0.0000
     3 C            8.7170   -20.3020    -0.9540 C.2          1 SAM400   0.0000
     4 O            8.0060   -21.0910    -1.5830 O.co2        1 SAM400   0.0000
     5 OXT          9.2110   -19.3620    -1.5520 O.co2        1 SAM400  -1.0000
     6 CB           7.6640   -19.8860     1.2130 C.3          1 SAM400   0.0000
     7 CG           7.0560   -18.5780     0.6670 C.3          1 SAM400   0.0000
     8 SD           5.7740   -17.7830     1.7030 S.3          1 SAM400   1.0000
     9 CE           5.2830   -19.3220     2.5000 C.3          1 SAM400   0.0000
    10 C5'          6.7970   -16.8720     2.8820 C.3          1 SAM400   0.0000
    11 C4'          7.2870   -17.5870     4.1470 C.3          1 SAM400   0.0000
    12 O4'          8.1330   -16.6780     4.8580 O.3          1 SAM400   0.0000
    13 C3'          6.1490   -17.9680     5.0950 C.3          1 SAM400   0.0000
    14 O3'          6.1460   -19.3390     5.4130 O.3          1 SAM400   0.0000
    15 C2'          6.3000   -17.0640     6.3060 C.3          1 SAM400   0.0000
    16 O2'          5.7590   -17.6280     7.5050 O.3          1 SAM400   0.0000
    17 C1'          7.7930   -16.7860     6.2480 C.3          1 SAM400   0.0000
    18 N9           8.2050   -15.5560     6.9620 N.pl3        1 SAM400   0.0000
    19 C8           7.9510   -14.2270     6.6830 C.2          1 SAM400   0.0000
    20 N7           8.5690   -13.4410     7.5950 N.2          1 SAM400   0.0000
    21 C5           9.2140   -14.2760     8.4510 C.ar         1 SAM400   0.0000
    22 C6          10.0160   -14.0650     9.5590 C.ar         1 SAM400   0.0000
    23 N6          10.2790   -12.8320    10.0190 N.pl3        1 SAM400   0.0000
    24 N1          10.5340   -15.1680    10.1760 N.ar         1 SAM400   0.0000
    25 C2          10.3020   -16.4520     9.7530 C.ar         1 SAM400   0.0000
    26 N3           9.5010   -16.6540     8.6660 N.ar         1 SAM400   0.0000
    27 C4           8.9940   -15.5870     8.0410 C.ar         1 SAM400   0.0000
    28 H1          10.2067   -19.4929     1.9055 H            1 SAM400   0.0000
    29 H2          10.9840   -20.5460     0.9290 H            1 SAM400   0.0000
    30 HA           8.9807   -21.4092     0.7489 H            1 SAM400   0.0000
    31 HB1          7.8760   -19.7338     2.1783 H            1 SAM400   0.0000
    32 HB2          6.9628   -20.5945     1.1334 H            1 SAM400   0.0000
    33 HG1          6.6460   -18.7809    -0.2222 H            1 SAM400   0.0000
    34 HG2          7.8015   -17.9221     0.5485 H            1 SAM400   0.0000
    35 HE1          4.5481   -19.1394     3.1532 H            1 SAM400   0.0000
    36 HE2          4.9609   -19.9679     1.8078 H            1 SAM400   0.0000
    37 HE3          6.0674   -19.7131     2.9815 H            1 SAM400   0.0000
    38 H5'1         6.2653   -16.0794     3.1804 H            1 SAM400   0.0000
    39 H5'2         7.6088   -16.5617     2.3874 H            1 SAM400   0.0000
    40 H4'          7.8050   -18.4043     3.8946 H            1 SAM400   0.0000
    41 H3'          5.2822   -17.7488     4.6472 H            1 SAM400   0.0000
    42 H15          7.0091   -19.5801     5.8568 H            1 SAM400   0.0000
    43 H2'          5.8166   -16.2089     6.1184 H            1 SAM400   0.0000
    44 H17          6.2279   -18.4870     7.7104 H            1 SAM400   0.0000
    45 H1'          8.2817   -17.5655     6.6399 H            1 SAM400   0.0000
    46 H19          7.3941   -13.8956     5.9214 H            1 SAM400   0.0000
    47 H20         10.8624   -12.7119    10.8222 H            1 SAM400   0.0000
    48 H21          9.8916   -12.0333     9.5585 H            1 SAM400   0.0000
    49 H22         10.7127   -17.2273    10.2328 H            1 SAM400   0.0000
    50 H23         10.5211   -19.0891     0.3547 H            1 SAM400   0.0000
@<TRIPOS>BOND
     1    1    2       1
     2    2    3       1
     3    2    6       1
     4    3    4      ar
     5    3    5      ar
     6    6    7       1
     7    7    8       1
     8    8    9       1
     9    8   10       1
    10   10   11       1
    11   11   12       1
    12   11   13       1
    13   12   17       1
    14   13   14       1
    15   13   15       1
    16   15   16       1
    17   15   17       1
    18   17   18       1
    19   18   19       1
    20   18   27       1
    21   19   20       2
    22   20   21       1
    23   21   22      ar
    24   21   27      ar
    25   22   23       1
    26   22   24      ar
    27   24   25      ar
    28   25   26      ar
    29   26   27      ar
    30    1   28       1
    31    1   29       1
    32    2   30       1
    33    1   50       1
    34    6   31       1
    35    6   32       1
    36    7   33       1
    37    7   34       1
    38    9   35       1
    39    9   36       1
    40    9   37       1
    41   10   38       1
    42   10   39       1
    43   11   40       1
    44   13   41       1
    45   14   42       1
    46   15   43       1
    47   16   44       1
    48   17   45       1
    49   19   46       1
    50   23   47       1
    51   23   48       1
    52   25   49       1
@<TRIPOS>SUBSTRUCTURE
     1 SAM400      1 GROUP             4 B     SAM     0 **** SAM B 400
