@<TRIPOS>MOLECULE
4cb6_29R_2_ligand
   48    49     1     0     0
SMALL
NO_CHARGES


@<TRIPOS>ATOM
     1 N1           7.6020     9.1480    12.7390 N.pl3        1 29R1483   0.0000
     2 C2           7.5390    10.4540    13.0610 C.2          1 29R1483   0.0000
     3 N2           6.3460    11.0410    13.0690 N.pl3        1 29R1483   0.0000
     4 N3           8.6530    11.1610    13.4080 N.2          1 29R1483   0.0000
     5 C4           9.8510    10.5380    13.4370 C.2          1 29R1483   0.0000
     6 C5           9.8830     9.2050    13.0660 C.2          1 29R1483   0.0000
     7 C6           8.7260     8.4940    12.7220 C.2          1 29R1483   0.0000
     8 O6           8.6780     7.2970    12.4170 O.2          1 29R1483   0.0000
     9 N7          11.1370     8.7850    13.1530 N.pl3        1 29R1483   0.0000
    10 C8          11.8710     9.8240    13.5560 C.2          1 29R1483   0.0000
    11 N9          11.0990    10.9020    13.7480 N.2          1 29R1483   1.0000
    12 C11         11.5890    12.2290    14.1610 C.3          1 29R1483   0.0000
    13 C12         11.7880    13.1270    12.9360 C.3          1 29R1483   0.0000
    14 C13         12.1740    14.5510    13.3280 C.3          1 29R1483   0.0000
    15 C14         13.6680    14.6420    13.6240 C.3          1 29R1483   0.0000
    16 C15         13.9760    15.9890    14.2190 C.2          1 29R1483   0.0000
    17 O16         13.6560    16.9980    13.5450 O.co2        1 29R1483   0.0000
    18 O17         14.5240    16.0280    15.3580 O.co2        1 29R1483  -1.0000
    19 C31          6.1750    12.4260    13.5090 C.3          1 29R1483   0.0000
    20 C32          6.2920    13.3490    12.2860 C.3          1 29R1483   0.0000
    21 C33          6.2440    14.8160    12.6810 C.3          1 29R1483   0.0000
    22 C34          5.2280    15.5930    11.8430 C.3          1 29R1483   0.0000
    23 C35          4.9210    16.9350    12.4660 C.2          1 29R1483   0.0000
    24 O36          5.5900    17.3280    13.4460 O.co2        1 29R1483   0.0000
    25 O37          3.9960    17.6070    11.9600 O.co2        1 29R1483  -1.0000
    26 CM7         11.6780     7.4380    12.8580 C.3          1 29R1483   0.0000
    27 H1           6.7577     8.6657    12.5055 H            1 29R1483   0.0000
    28 H2           5.5457    10.5231    12.7668 H            1 29R1483   0.0000
    29 H3          12.8610     9.8011    13.6955 H            1 29R1483   0.0000
    30 H4          12.4613    12.1246    14.6387 H            1 29R1483   0.0000
    31 H5          10.9214    12.6510    14.7744 H            1 29R1483   0.0000
    32 H6          10.9352    13.1555    12.4146 H            1 29R1483   0.0000
    33 H7          12.5139    12.7407    12.3669 H            1 29R1483   0.0000
    34 H8          11.6608    14.8176    14.1438 H            1 29R1483   0.0000
    35 H9          11.9499    15.1708    12.5759 H            1 29R1483   0.0000
    36 H10         14.1843    14.5257    12.7755 H            1 29R1483   0.0000
    37 H11         13.9246    13.9243    14.2714 H            1 29R1483   0.0000
    38 H12          6.8844    12.6577    14.1746 H            1 29R1483   0.0000
    39 H13          5.2745    12.5368    13.9294 H            1 29R1483   0.0000
    40 H14          5.5350    13.1568    11.6615 H            1 29R1483   0.0000
    41 H15          7.1599    13.1662    11.8240 H            1 29R1483   0.0000
    42 H16          7.1499    15.2177    12.5470 H            1 29R1483   0.0000
    43 H17          5.9886    14.8840    13.6454 H            1 29R1483   0.0000
    44 H18          4.3832    15.0618    11.7790 H            1 29R1483   0.0000
    45 H19          5.6019    15.7363    10.9267 H            1 29R1483   0.0000
    46 HM71        12.6649     7.4325    13.0192 H            1 29R1483   0.0000
    47 HM72        11.2393     6.7649    13.4533 H            1 29R1483   0.0000
    48 HM73        11.4950     7.2073    11.9023 H            1 29R1483   0.0000
@<TRIPOS>BOND
     1    1    2       1
     2    1    7       1
     3    2    3       1
     4    2    4       2
     5    3   19       1
     6    4    5       1
     7    5    6       2
     8    5   11       1
     9    6    7       1
    10    6    9       1
    11    7    8       2
    12    9   10       1
    13    9   26       1
    14   10   11       2
    15   11   12       1
    16   12   13       1
    17   13   14       1
    18   14   15       1
    19   15   16       1
    20   16   17      ar
    21   16   18      ar
    22   19   20       1
    23   20   21       1
    24   21   22       1
    25   22   23       1
    26   23   24      ar
    27   23   25      ar
    28    1   27       1
    29    3   28       1
    30   10   29       1
    31   12   30       1
    32   12   31       1
    33   13   32       1
    34   13   33       1
    35   14   34       1
    36   14   35       1
    37   15   36       1
    38   15   37       1
    39   26   48       1
    40   19   38       1
    41   19   39       1
    42   20   40       1
    43   20   41       1
    44   21   42       1
    45   21   43       1
    46   22   44       1
    47   22   45       1
    48   26   47       1
    49   26   46       1
@<TRIPOS>SUBSTRUCTURE
     1 29R1483     1 GROUP             4 B     29R     0 **** 29R B1483
