@<TRIPOS>MOLECULE
4eqk_MGT_1_ligand
   49    51     1     0     0
SMALL
NO_CHARGES


@<TRIPOS>ATOM
     1 PG           8.6590    24.8170    12.7290 P.3          1 MGT502   0.0000
     2 O1G          7.6520    24.2450    11.7310 O.co2        1 MGT502   0.0000
     3 O2G          8.8680    26.3260    12.7480 O.co2        1 MGT502  -1.0000
     4 O3G          9.9780    24.0490    12.7340 O.co2        1 MGT502  -1.0000
     5 O3B          7.8380    24.5780    14.1180 O.3          1 MGT502   0.0000
     6 PB           7.6000    23.1130    14.7400 P.3          1 MGT502   0.0000
     7 O1B          6.5900    22.2650    13.9540 O.co2        1 MGT502   0.0000
     8 O2B          7.3150    23.2980    16.2150 O.co2        1 MGT502  -1.0000
     9 O3A          9.1270    22.6450    14.4100 O.3          1 MGT502   0.0000
    10 PA          10.0990    21.5710    15.1650 P.3          1 MGT502   0.0000
    11 O1A         10.5350    20.6610    14.0490 O.co2        1 MGT502   0.0000
    12 O2A          9.4550    21.1240    16.4840 O.co2        1 MGT502  -1.0000
    13 O5'         11.4250    22.4570    15.5230 O.3          1 MGT502   0.0000
    14 C5'         11.8000    22.7330    16.8710 C.3          1 MGT502   0.0000
    15 C4'         12.1170    24.2200    17.0450 C.3          1 MGT502   0.0000
    16 O4'         13.3800    24.4700    16.4500 O.3          1 MGT502   0.0000
    17 C3'         11.1390    25.1870    16.3710 C.3          1 MGT502   0.0000
    18 O3'         10.9200    26.1830    17.3660 O.3          1 MGT502   0.0000
    19 C2'         11.9090    25.7860    15.1970 C.3          1 MGT502   0.0000
    20 O2'         11.6210    27.1490    14.8970 O.3          1 MGT502   0.0000
    21 C1'         13.2800    25.7460    15.8310 C.3          1 MGT502   0.0000
    22 N9          14.3470    25.9470    14.8490 N.pl3        1 MGT502   0.0000
    23 C8          14.5730    24.8780    13.8970 C.3          1 MGT502   0.0000
    24 N7          15.6410    25.5780    13.2200 N.pl3        1 MGT502   0.0000
    25 CM7         16.2300    24.8160    12.1040 C.3          1 MGT502   0.0000
    26 C5          15.9230    26.7720    13.7090 C.2          1 MGT502   0.0000
    27 C6          16.8990    27.7770    13.3520 C.2          1 MGT502   0.0000
    28 O6          17.6760    27.5300    12.4010 O.2          1 MGT502   0.0000
    29 N1          16.8950    28.9120    14.1080 N.pl3        1 MGT502   0.0000
    30 C2          16.0500    29.1300    15.1440 C.2          1 MGT502   0.0000
    31 N2          16.1220    30.2880    15.8290 N.pl3        1 MGT502   0.0000
    32 N3          15.1250    28.2070    15.5100 N.2          1 MGT502   0.0000
    33 C4          15.0360    27.0500    14.8110 C.2          1 MGT502   0.0000
    34 H5'1        12.6096    22.1944    17.1043 H            1 MGT502   0.0000
    35 H5'2        11.0469    22.4836    17.4798 H            1 MGT502   0.0000
    36 H4'         12.1670    24.4322    18.0210 H            1 MGT502   0.0000
    37 H3'         10.2923    24.7383    16.0850 H            1 MGT502   0.0000
    38 H5          10.2844    26.8707    17.0151 H            1 MGT502   0.0000
    39 H2'         11.8578    25.2067    14.3835 H            1 MGT502   0.0000
    40 H7          12.1740    27.4428    14.1173 H            1 MGT502   0.0000
    41 H1'         13.3394    26.4571    16.5316 H            1 MGT502   0.0000
    42 H9          13.7837    24.6993    13.3096 H            1 MGT502   0.0000
    43 H10         14.8698    24.0245    14.3252 H            1 MGT502   0.0000
    44 HM71        16.9590    25.3542    11.6810 H            1 MGT502   0.0000
    45 HM72        16.6075    23.9569    12.4495 H            1 MGT502   0.0000
    46 HM73        15.5231    24.6200    11.4244 H            1 MGT502   0.0000
    47 H14         17.5567    29.6274    13.8837 H            1 MGT502   0.0000
    48 H15         15.5012    30.4553    16.5949 H            1 MGT502   0.0000
    49 H16         16.7963    30.9801    15.5715 H            1 MGT502   0.0000
@<TRIPOS>BOND
     1    1    2      ar
     2    1    3      ar
     3    1    4      ar
     4    1    5       1
     5    5    6       1
     6    6    7      ar
     7    6    8      ar
     8    6    9       1
     9    9   10       1
    10   10   11      ar
    11   10   12      ar
    12   10   13       1
    13   13   14       1
    14   14   15       1
    15   15   16       1
    16   15   17       1
    17   16   21       1
    18   17   18       1
    19   17   19       1
    20   19   20       1
    21   19   21       1
    22   21   22       1
    23   22   23       1
    24   22   33       1
    25   23   24       1
    26   24   25       1
    27   24   26       1
    28   26   27       1
    29   26   33       2
    30   27   28       2
    31   27   29       1
    32   29   30       1
    33   30   31       1
    34   30   32       2
    35   32   33       1
    36   31   49       1
    37   31   48       1
    38   29   47       1
    39   25   46       1
    40   14   34       1
    41   14   35       1
    42   15   36       1
    43   17   37       1
    44   18   38       1
    45   19   39       1
    46   20   40       1
    47   21   41       1
    48   23   42       1
    49   23   43       1
    50   25   44       1
    51   25   45       1
@<TRIPOS>SUBSTRUCTURE
     1 MGT502      1 GROUP             4 A     MGT     0 **** MGT A 502
