@<TRIPOS>MOLECULE
3qlx_QLR_2_ligand
   51    52     1     0     0
SMALL
NO_CHARGES


@<TRIPOS>ATOM
     1 N1          26.6830    10.4220   -36.2550 N.ar         1 QLR229   1.0000
     2 C2          26.1500    10.8950   -35.1160 C.ar         1 QLR229   0.0000
     3 N3          26.2810    10.2100   -33.9500 N.ar         1 QLR229   0.0000
     4 C4          26.9640     9.0470   -33.9010 C.ar         1 QLR229   0.0000
     5 C5          27.5110     8.5330   -35.0900 C.ar         1 QLR229   0.0000
     6 C6          27.3740     9.2640   -36.2690 C.ar         1 QLR229   0.0000
     7 CAA         30.9840     5.0170   -33.3810 C.3          1 QLR229   0.0000
     8 CAB         31.3520     2.0550   -39.1900 C.3          1 QLR229   0.0000
     9 CAC         34.9070     6.9020   -36.9280 C.3          1 QLR229   0.0000
    10 CAD         33.7840     5.8350   -40.3750 C.3          1 QLR229   0.0000
    11 CAE         27.9760     8.7480   -37.5820 C.3          1 QLR229   0.0000
    12 NAF         25.4920    12.0620   -35.1500 N.pl3        1 QLR229   0.0000
    13 NAG         27.1070     8.3900   -32.7370 N.pl3        1 QLR229   0.0000
    14 CAH         28.2740     7.3170   -35.1130 C.1          1 QLR229   0.0000
    15 CAI         28.8990     6.2620   -35.2430 C.1          1 QLR229   0.0000
    16 CAJ         31.0100     4.0520   -37.4140 C.ar         1 QLR229   0.0000
    17 CAK         31.6490     6.1780   -36.4590 C.ar         1 QLR229   0.0000
    18 CAL         29.9760     4.2580   -34.2340 C.3          1 QLR229   0.0000
    19 OAO         32.3350     3.1040   -39.2210 O.3          1 QLR229   0.0000
    20 OAP         33.5760     7.3260   -37.2840 O.3          1 QLR229   0.0000
    21 OAQ         34.0680     5.2430   -39.0840 O.3          1 QLR229   0.0000
    22 CAU         30.7850     5.0920   -36.4990 C.ar         1 QLR229   0.0000
    23 CAW         32.1110     4.0990   -38.2920 C.ar         1 QLR229   0.0000
    24 CAX         32.7420     6.2370   -37.3310 C.ar         1 QLR229   0.0000
    25 CAY         32.9680     5.2010   -38.2570 C.ar         1 QLR229   0.0000
    26 CAZ         29.6050     4.9930   -35.5250 C.3          1 QLR229   0.0000
    27 HAA1        31.1861     4.4899   -32.5556 H            1 QLR229   0.0000
    28 HAA2        31.8257     5.1547   -33.9030 H            1 QLR229   0.0000
    29 HAA3        30.6020     5.9048   -33.1243 H            1 QLR229   0.0000
    30 HAB1        31.5730     1.3704   -39.8846 H            1 QLR229   0.0000
    31 HAB2        31.3513     1.6254   -38.2870 H            1 QLR229   0.0000
    32 HAB3        30.4480     2.4396   -39.3768 H            1 QLR229   0.0000
    33 HAC1        35.5124     7.6972   -36.8945 H            1 QLR229   0.0000
    34 HAC2        34.8874     6.4600   -36.0312 H            1 QLR229   0.0000
    35 HAC3        35.2446     6.2546   -37.6113 H            1 QLR229   0.0000
    36 HAD1        34.6157     5.8387   -40.9302 H            1 QLR229   0.0000
    37 HAD2        33.0764     5.3012   -40.8381 H            1 QLR229   0.0000
    38 HAD3        33.4638     6.7738   -40.2480 H            1 QLR229   0.0000
    39 HAE1        28.4512     7.8843   -37.4141 H            1 QLR229   0.0000
    40 HAE2        27.2454     8.6022   -38.2491 H            1 QLR229   0.0000
    41 HAE3        28.6238     9.4210   -37.9389 H            1 QLR229   0.0000
    42 HAF1        25.0875    12.4325   -34.3139 H            1 QLR229   0.0000
    43 HAF2        25.4055    12.5623   -36.0115 H            1 QLR229   0.0000
    44 HAG1        27.6144     7.5287   -32.7080 H            1 QLR229   0.0000
    45 HAG2        26.7060     8.7625   -31.9001 H            1 QLR229   0.0000
    46 HAJ         30.3846     3.2722   -37.4431 H            1 QLR229   0.0000
    47 HAK         31.4901     6.9189   -35.8064 H            1 QLR229   0.0000
    48 HAL1        29.1442     4.1202   -33.6963 H            1 QLR229   0.0000
    49 HAL2        30.3680     3.3702   -34.4750 H            1 QLR229   0.0000
    50 HAZ         28.9324     4.4094   -35.9799 H            1 QLR229   0.0000
    51 H25         26.5656    10.9361   -37.1047 H            1 QLR229   0.0000
@<TRIPOS>BOND
     1    1    2      ar
     2    1    6      ar
     3    2    3      ar
     4    2   12       1
     5    3    4      ar
     6    4    5      ar
     7    4   13       1
     8    5    6      ar
     9    5   14       1
    10    6   11       1
    11    7   18       1
    12    8   19       1
    13    9   20       1
    14   10   21       1
    15   14   15       3
    16   15   26       1
    17   16   22      ar
    18   16   23      ar
    19   17   22      ar
    20   17   24      ar
    21   18   26       1
    22   19   23       1
    23   20   24       1
    24   21   25       1
    25   22   26       1
    26   23   25      ar
    27   24   25      ar
    28    7   27       1
    29    7   28       1
    30    7   29       1
    31    8   30       1
    32    8   31       1
    33    8   32       1
    34    9   33       1
    35    9   34       1
    36    9   35       1
    37   10   36       1
    38   10   37       1
    39   10   38       1
    40   11   39       1
    41   11   40       1
    42   11   41       1
    43   12   42       1
    44   12   43       1
    45   13   44       1
    46   13   45       1
    47   16   46       1
    48   17   47       1
    49   18   48       1
    50   18   49       1
    51   26   50       1
    52    1   51       1
@<TRIPOS>SUBSTRUCTURE
     1 QLR229      1 GROUP             4 B     QLR     0 **** QLR B 229
