@<TRIPOS>MOLECULE
5eq1_BEA_1_ligand
   20    22     1     0     0
SMALL
NO_CHARGES


@<TRIPOS>ATOM
     1 C1           8.4860   -11.2710     6.1260 C.ar         1 BEA801   0.0000
     2 C2           9.6840   -11.9950     6.1160 C.3          1 BEA801   0.0000
     3 C3           8.1890   -10.5370     7.2710 C.ar         1 BEA801   0.0000
     4 C4           7.0130    -9.8060     7.3230 C.ar         1 BEA801   0.0000
     5 C5           6.1790    -9.8480     6.2160 C.ar         1 BEA801   0.0000
     6 C6           6.5060   -10.5620     5.1390 C.ar         1 BEA801   0.0000
     7 C7           6.7960   -11.7720     3.0130 C.2          1 BEA801   0.0000
     8 C8           7.6530   -11.2840     5.0690 C.ar         1 BEA801   0.0000
     9 C9           8.6410   -12.7560     3.2460 C.2          1 BEA801   0.0000
    10 N1           7.7980   -11.9420     3.8880 N.pl3        1 BEA801   0.0000
    11 N2           8.1270   -13.0330     2.0550 N.2          1 BEA801   0.0000
    12 N3           7.0720   -12.4740     1.9200 N.2          1 BEA801   0.0000
    13 S            5.6810   -10.7690     3.6940 S.3          1 BEA801   0.0000
    14 H1           9.7766   -12.4742     5.2432 H            1 BEA801   0.0000
    15 H2          10.4536   -11.3677     6.2351 H            1 BEA801   0.0000
    16 H3           9.6776   -12.6603     6.8625 H            1 BEA801   0.0000
    17 H4           8.8181   -10.5373     8.0483 H            1 BEA801   0.0000
    18 H5           6.7741    -9.2670     8.1307 H            1 BEA801   0.0000
    19 H6           5.3203    -9.3355     6.2258 H            1 BEA801   0.0000
    20 H7           9.5105   -13.0978     3.6024 H            1 BEA801   0.0000
@<TRIPOS>BOND
     1    1    2       1
     2    1    3      ar
     3    1    8      ar
     4    3    4      ar
     5    4    5      ar
     6    5    6      ar
     7    6    8      ar
     8    6   13       1
     9    7   10       1
    10    7   12       2
    11    7   13       1
    12    8   10       1
    13    9   10       1
    14    9   11       2
    15   11   12       1
    16    2   14       1
    17    2   15       1
    18    2   16       1
    19    3   17       1
    20    4   18       1
    21    5   19       1
    22    9   20       1
@<TRIPOS>SUBSTRUCTURE
     1 BEA801      1 GROUP             4 A     BEA     0 **** BEA A 801
