@<TRIPOS>MOLECULE
1cyd_NDP_3_ligand
   73    77     1     0     0
SMALL
NO_CHARGES


@<TRIPOS>ATOM
     1 PA          12.1230   -24.3440     5.3740 P.3          1 NDP245   0.0000
     2 O1A         10.8310   -23.9630     4.7650 O.co2        1 NDP245   0.0000
     3 O2A         13.1460   -24.9630     4.5380 O.co2        1 NDP245  -1.0000
     4 O5B         11.8640   -25.1610     6.7020 O.3          1 NDP245   0.0000
     5 C5B         10.8810   -24.7620     7.6640 C.3          1 NDP245   0.0000
     6 C4B         10.7340   -25.9590     8.5720 C.3          1 NDP245   0.0000
     7 O4B          9.9610   -25.5770     9.7080 O.3          1 NDP245   0.0000
     8 C3B         10.0340   -27.0880     7.8350 C.3          1 NDP245   0.0000
     9 O3B         10.4890   -28.3870     8.2650 O.3          1 NDP245   0.0000
    10 C2B          8.6030   -26.8270     8.2580 C.3          1 NDP245   0.0000
    11 O2B          7.8050   -28.0010     8.1790 O.3          1 NDP245   0.0000
    12 C1B          8.7970   -26.4130     9.6940 C.3          1 NDP245   0.0000
    13 N9A          7.5380   -25.8110    10.1800 N.pl3        1 NDP245   0.0000
    14 C8A          6.8640   -24.7810     9.6320 C.2          1 NDP245   0.0000
    15 N7A          5.6750   -24.6050    10.2180 N.2          1 NDP245   0.0000
    16 C5A          5.6490   -25.5590    11.1350 C.ar         1 NDP245   0.0000
    17 C6A          4.5860   -25.7920    11.9800 C.ar         1 NDP245   0.0000
    18 N6A          3.4660   -25.0840    11.8500 N.pl3        1 NDP245   0.0000
    19 N1A          4.7470   -26.8000    12.8600 N.ar         1 NDP245   0.0000
    20 C2A          5.8670   -27.5280    12.9090 C.ar         1 NDP245   0.0000
    21 N3A          6.8870   -27.3030    12.0740 N.ar         1 NDP245   0.0000
    22 C4A          6.7960   -26.3170    11.1590 C.ar         1 NDP245   0.0000
    23 O3          12.7410   -22.9940     6.0220 O.3          1 NDP245   0.0000
    24 PN          14.1830   -22.4460     6.4700 P.3          1 NDP245   0.0000
    25 O1N         14.6630   -21.5570     5.3930 O.co2        1 NDP245   0.0000
    26 O2N         15.0770   -23.5130     6.9450 O.co2        1 NDP245  -1.0000
    27 O5D         13.7990   -21.4920     7.6980 O.3          1 NDP245   0.0000
    28 C5D         14.0820   -21.8510     9.0620 C.3          1 NDP245   0.0000
    29 C4D         14.1240   -20.6010     9.9220 C.3          1 NDP245   0.0000
    30 O4D         15.0900   -19.7230     9.2950 O.3          1 NDP245   0.0000
    31 C3D         12.8190   -19.8130    10.0150 C.3          1 NDP245   0.0000
    32 O3D         12.6640   -19.2390    11.3240 O.3          1 NDP245   0.0000
    33 C2D         12.9970   -18.7090     8.9770 C.3          1 NDP245   0.0000
    34 O2D         12.2310   -17.5670     9.3270 O.3          1 NDP245   0.0000
    35 C1D         14.4910   -18.4480     9.1020 C.3          1 NDP245   0.0000
    36 N1N         15.1040   -17.8120     7.9310 N.ar         1 NDP245   1.0000
    37 C2N         15.0760   -18.3650     6.6300 C.ar         1 NDP245   0.0000
    38 C3N         15.6970   -17.6440     5.5870 C.ar         1 NDP245   0.0000
    39 C7N         15.7570   -18.1420     4.1270 C.2          1 NDP245   0.0000
    40 O7N         15.8670   -17.3710     3.1740 O.2          1 NDP245   0.0000
    41 N7N         15.6760   -19.4450     3.9400 N.am         1 NDP245   0.0000
    42 C4N         16.3070   -16.4220     5.8790 C.ar         1 NDP245   0.0000
    43 C5N         16.3260   -15.8910     7.1820 C.ar         1 NDP245   0.0000
    44 C6N         15.7230   -16.5870     8.2180 C.ar         1 NDP245   0.0000
    45 P2B          7.0340   -28.3320     6.8070 P.3          1 NDP245   0.0000
    46 O1X          6.6880   -29.8730     6.9810 O.co2        1 NDP245   0.0000
    47 O2X          7.8350   -28.1630     5.5960 O.co2        1 NDP245  -1.0000
    48 O3X          5.7900   -27.5280     6.8530 O.co2        1 NDP245  -1.0000
    49 H5B1        10.0129   -24.5499     7.2153 H            1 NDP245   0.0000
    50 H5B2        11.1938   -23.9639     8.1790 H            1 NDP245   0.0000
    51 H4B         11.6380   -26.2649     8.8706 H            1 NDP245   0.0000
    52 H3B         10.1369   -26.9846     6.8457 H            1 NDP245   0.0000
    53 H5           9.7463   -29.0495     8.1674 H            1 NDP245   0.0000
    54 H2B          8.2012   -26.0842     7.7224 H            1 NDP245   0.0000
    55 H1B          8.9876   -27.2310    10.2368 H            1 NDP245   0.0000
    56 H8A          7.2097   -24.2185     8.8810 H            1 NDP245   0.0000
    57 H6A1         2.6940   -25.2525    12.4629 H            1 NDP245   0.0000
    58 H6A2         3.3968   -24.3837    11.1395 H            1 NDP245   0.0000
    59 H2A          5.9440   -28.2591    13.5869 H            1 NDP245   0.0000
    60 H5D1        14.9666   -22.3152     9.1068 H            1 NDP245   0.0000
    61 H5D2        13.3669   -22.4630     9.3998 H            1 NDP245   0.0000
    62 H4D         14.4366   -20.8388    10.8416 H            1 NDP245   0.0000
    63 H3D         12.0369   -20.3927     9.7864 H            1 NDP245   0.0000
    64 H16         12.1791   -19.8834    11.9153 H            1 NDP245   0.0000
    65 H2D         12.7627   -19.0338     8.0607 H            1 NDP245   0.0000
    66 H18         11.2635   -17.8158     9.3729 H            1 NDP245   0.0000
    67 H1D         14.6587   -17.8812     9.9086 H            1 NDP245   0.0000
    68 H2N         14.6290   -19.2420     6.4536 H            1 NDP245   0.0000
    69 H7N1        15.7098   -19.8202     3.0137 H            1 NDP245   0.0000
    70 H7N2        15.5808   -20.0577     4.7245 H            1 NDP245   0.0000
    71 H4N         16.7434   -15.9090     5.1398 H            1 NDP245   0.0000
    72 H5N         16.7731   -15.0144     7.3600 H            1 NDP245   0.0000
    73 H6N         15.7293   -16.2235     9.1496 H            1 NDP245   0.0000
@<TRIPOS>BOND
     1    1    2      ar
     2    1    3      ar
     3    1    4       1
     4    1   23       1
     5    4    5       1
     6    5    6       1
     7    6    7       1
     8    6    8       1
     9    7   12       1
    10    8    9       1
    11    8   10       1
    12   10   11       1
    13   10   12       1
    14   11   45       1
    15   12   13       1
    16   13   14       1
    17   13   22       1
    18   14   15       2
    19   15   16       1
    20   16   17      ar
    21   16   22      ar
    22   17   18       1
    23   17   19      ar
    24   19   20      ar
    25   20   21      ar
    26   21   22      ar
    27   23   24       1
    28   24   25      ar
    29   24   26      ar
    30   24   27       1
    31   27   28       1
    32   28   29       1
    33   29   30       1
    34   29   31       1
    35   30   35       1
    36   31   32       1
    37   31   33       1
    38   33   34       1
    39   33   35       1
    40   35   36       1
    41   36   37      ar
    42   36   44      ar
    43   37   38      ar
    44   38   39       1
    45   38   42      ar
    46   39   40       2
    47   39   41      am
    48   42   43      ar
    49   43   44      ar
    50   45   46      ar
    51   45   47      ar
    52   45   48      ar
    53   43   72       1
    54    5   49       1
    55    5   50       1
    56    6   51       1
    57    8   52       1
    58    9   53       1
    59   10   54       1
    60   12   55       1
    61   14   56       1
    62   18   57       1
    63   18   58       1
    64   20   59       1
    65   44   73       1
    66   28   60       1
    67   28   61       1
    68   29   62       1
    69   31   63       1
    70   32   64       1
    71   33   65       1
    72   34   66       1
    73   35   67       1
    74   37   68       1
    75   41   69       1
    76   41   70       1
    77   42   71       1
@<TRIPOS>SUBSTRUCTURE
     1 NDP245      1 GROUP             4 C     NDP     0 **** NDP C 245
