@<TRIPOS>MOLECULE
3tvx_PNX_1_ligand
   38    39     1     0     0
SMALL
NO_CHARGES


@<TRIPOS>ATOM
     1 CAA         39.9500    15.7000   -28.6970 C.3          1 PNX902   0.0000
     2 CAM         39.9740    15.3860   -27.2170 C.2          1 PNX902   0.0000
     3 OAD         40.0460    14.2180   -26.8610 O.2          1 PNX902   0.0000
     4 CAJ         39.9090    16.5140   -26.2080 C.3          1 PNX902   0.0000
     5 CAH         39.7630    16.0360   -24.7610 C.3          1 PNX902   0.0000
     6 CAI         41.1300    15.8710   -24.0980 C.3          1 PNX902   0.0000
     7 CAK         41.7740    17.2370   -23.8400 C.3          1 PNX902   0.0000
     8 N1          43.2350    17.1890   -24.0050 N.pl3        1 PNX902   0.0000
     9 C6          43.9830    16.9800   -22.8900 C.2          1 PNX902   0.0000
    10 O6          43.4590    16.8300   -21.7970 O.2          1 PNX902   0.0000
    11 C5          45.3720    16.9450   -23.0650 C.2          1 PNX902   0.0000
    12 N7          46.4020    16.7550   -22.1950 N.pl3        1 PNX902   0.0000
    13 CAB         46.3660    16.5280   -20.7480 C.3          1 PNX902   0.0000
    14 C8          47.5530    16.8080   -22.9050 C.2          1 PNX902   0.0000
    15 N9          47.2690    17.0230   -24.2070 N.2          1 PNX902   0.0000
    16 C4          45.9260    17.1190   -24.3400 C.2          1 PNX902   0.0000
    17 N3          45.1490    17.3300   -25.4320 N.pl3        1 PNX902   0.0000
    18 CAC         45.7430    17.5140   -26.7580 C.3          1 PNX902   0.0000
    19 C2          43.8030    17.3600   -25.2340 C.2          1 PNX902   0.0000
    20 O2          43.0930    17.5460   -26.2150 O.2          1 PNX902   0.0000
    21 HAA1        39.8896    16.6897   -28.8268 H            1 PNX902   0.0000
    22 HAA2        40.7873    15.3583   -29.1239 H            1 PNX902   0.0000
    23 HAA3        39.1573    15.2595   -29.1184 H            1 PNX902   0.0000
    24 HAJ1        39.1239    17.0920   -26.4305 H            1 PNX902   0.0000
    25 HAJ2        40.7494    17.0511   -26.2800 H            1 PNX902   0.0000
    26 HAH1        39.2877    15.1562   -24.7536 H            1 PNX902   0.0000
    27 HAH2        39.2292    16.7076   -24.2471 H            1 PNX902   0.0000
    28 HAI1        41.7240    15.3361   -24.6988 H            1 PNX902   0.0000
    29 HAI2        41.0172    15.3914   -23.2278 H            1 PNX902   0.0000
    30 HAK1        41.5625    17.5238   -22.9056 H            1 PNX902   0.0000
    31 HAK2        41.3965    17.9006   -24.4859 H            1 PNX902   0.0000
    32 HAB1        47.2991    16.4260   -20.4033 H            1 PNX902   0.0000
    33 HAB2        45.9281    17.3070   -20.2992 H            1 PNX902   0.0000
    34 HAB3        45.8462    15.6961   -20.5539 H            1 PNX902   0.0000
    35 H15         48.4717    16.7040   -22.5240 H            1 PNX902   0.0000
    36 HAC1        45.0175    17.6557   -27.4315 H            1 PNX902   0.0000
    37 HAC2        46.3464    18.3114   -26.7452 H            1 PNX902   0.0000
    38 HAC3        46.2707    16.7006   -27.0027 H            1 PNX902   0.0000
@<TRIPOS>BOND
     1    1    2       1
     2    2    3       2
     3    2    4       1
     4    4    5       1
     5    5    6       1
     6    6    7       1
     7    7    8       1
     8    8    9       1
     9    8   19       1
    10    9   10       2
    11    9   11       1
    12   11   12       1
    13   11   16       2
    14   12   13       1
    15   12   14       1
    16   14   15       2
    17   15   16       1
    18   16   17       1
    19   17   18       1
    20   17   19       1
    21   19   20       2
    22    1   21       1
    23    1   22       1
    24    1   23       1
    25    4   24       1
    26    4   25       1
    27    5   26       1
    28    5   27       1
    29    6   28       1
    30    6   29       1
    31    7   30       1
    32    7   31       1
    33   13   32       1
    34   13   33       1
    35   13   34       1
    36   14   35       1
    37   18   36       1
    38   18   37       1
    39   18   38       1
@<TRIPOS>SUBSTRUCTURE
     1 PNX902      1 GROUP             4 A     PNX     0 **** PNX A 902
