@<TRIPOS>MOLECULE
3g6x_DGT_1_ligand
   43    45     1     0     0
SMALL
NO_CHARGES


@<TRIPOS>ATOM
     1 PG           1.8480    18.3000    13.8670 P.3          1 DGT875   0.0000
     2 O1G          3.1080    19.0620    13.5520 O.co2        1 DGT875   0.0000
     3 O2G          0.6800    18.6020    12.9220 O.co2        1 DGT875  -1.0000
     4 O3G          2.0390    16.8620    14.1820 O.co2        1 DGT875  -1.0000
     5 O3B          1.2630    19.0690    15.2240 O.3          1 DGT875   0.0000
     6 PB           2.0990    19.9170    16.3620 P.3          1 DGT875   0.0000
     7 O1B          1.3600    19.6710    17.6330 O.co2        1 DGT875   0.0000
     8 O2B          3.5560    19.5380    16.4910 O.co2        1 DGT875  -1.0000
     9 O3A          1.7860    21.3760    15.8230 O.3          1 DGT875   0.0000
    10 PA           2.9110    22.5010    15.3560 P.3          1 DGT875   0.0000
    11 O1A          4.0860    21.6380    14.8250 O.co2        1 DGT875   0.0000
    12 O2A          1.9790    23.2970    14.5480 O.co2        1 DGT875  -1.0000
    13 O5'          3.3260    23.2980    16.7050 O.3          1 DGT875   0.0000
    14 C5'          4.2960    22.6910    17.6640 C.3          1 DGT875   0.0000
    15 C4'          3.7590    22.9010    19.1210 C.3          1 DGT875   0.0000
    16 O4'          3.4750    24.3050    19.3730 O.3          1 DGT875   0.0000
    17 C3'          2.4140    22.1480    19.3470 C.3          1 DGT875   0.0000
    18 O3'          2.5630    20.7620    19.8760 O.3          1 DGT875   0.0000
    19 C2'          1.5950    23.1190    20.1890 C.3          1 DGT875   0.0000
    20 C1'          2.3030    24.5070    20.1140 C.3          1 DGT875   0.0000
    21 N9           1.5320    25.5160    19.3620 N.pl3        1 DGT875   0.0000
    22 C8           1.4870    25.6070    18.0040 C.2          1 DGT875   0.0000
    23 N7           0.6310    26.6090    17.5910 N.2          1 DGT875   0.0000
    24 C5           0.1140    27.1600    18.6940 C.2          1 DGT875   0.0000
    25 C6          -0.8820    28.2120    18.9710 C.2          1 DGT875   0.0000
    26 O6          -1.4290    28.8870    18.0570 O.2          1 DGT875   0.0000
    27 N1          -1.1490    28.4640    20.2610 N.pl3        1 DGT875   0.0000
    28 C2          -0.6470    27.7920    21.2820 C.2          1 DGT875   0.0000
    29 N2          -1.0600    28.1780    22.4980 N.pl3        1 DGT875   0.0000
    30 N3           0.2480    26.7800    21.1190 N.2          1 DGT875   0.0000
    31 C4           0.6700    26.4300    19.8610 C.2          1 DGT875   0.0000
    32 H5'1         5.1874    23.1337    17.5667 H            1 DGT875   0.0000
    33 H5'2         4.3874    21.7130    17.4766 H            1 DGT875   0.0000
    34 H4'          4.4389    22.5747    19.7778 H            1 DGT875   0.0000
    35 H3'          1.9631    22.0768    18.4573 H            1 DGT875   0.0000
    36 H5           2.1605    20.1135    19.2299 H            1 DGT875   0.0000
    37 H2'1         1.5590    22.8038    21.1373 H            1 DGT875   0.0000
    38 H2'2         0.6661    23.1883    19.8253 H            1 DGT875   0.0000
    39 H1'          2.5198    24.8415    21.0311 H            1 DGT875   0.0000
    40 H9           2.0086    25.0215    17.3834 H            1 DGT875   0.0000
    41 H10         -1.7748    29.2167    20.4654 H            1 DGT875   0.0000
    42 H11         -0.7185    27.7110    23.3136 H            1 DGT875   0.0000
    43 H12         -1.7095    28.9329    22.5892 H            1 DGT875   0.0000
@<TRIPOS>BOND
     1    1    2      ar
     2    1    3      ar
     3    1    4      ar
     4    1    5       1
     5    5    6       1
     6    6    7      ar
     7    6    8      ar
     8    6    9       1
     9    9   10       1
    10   10   11      ar
    11   10   12      ar
    12   10   13       1
    13   13   14       1
    14   14   15       1
    15   15   16       1
    16   15   17       1
    17   16   20       1
    18   17   18       1
    19   17   19       1
    20   19   20       1
    21   20   21       1
    22   21   22       1
    23   21   31       1
    24   22   23       2
    25   23   24       1
    26   24   25       1
    27   24   31       2
    28   25   26       2
    29   25   27       1
    30   27   28       1
    31   28   29       1
    32   28   30       2
    33   30   31       1
    34   29   43       1
    35   29   42       1
    36   27   41       1
    37   22   40       1
    38   14   32       1
    39   14   33       1
    40   15   34       1
    41   17   35       1
    42   18   36       1
    43   19   37       1
    44   19   38       1
    45   20   39       1
@<TRIPOS>SUBSTRUCTURE
     1 DGT875      1 GROUP             4 A     DGT     0 **** DGT A 875
