@<TRIPOS>MOLECULE
1sus_SPF_1_ligand
  102   105     1     0     0
SMALL
NO_CHARGES


@<TRIPOS>ATOM
     1 N1A         40.8780    58.4490    33.7600 N.ar         1 SPF401   0.0000
     2 C2A         40.4860    57.8900    34.9480 C.ar         1 SPF401   0.0000
     3 N3A         40.2290    58.4720    36.0830 N.ar         1 SPF401   0.0000
     4 C4A         40.4000    59.8080    35.9910 C.ar         1 SPF401   0.0000
     5 C5A         40.7890    60.5200    34.8740 C.ar         1 SPF401   0.0000
     6 C6A         41.0430    59.7980    33.6910 C.ar         1 SPF401   0.0000
     7 N6A         41.4250    60.3420    32.5380 N.pl3        1 SPF401   0.0000
     8 N7A         40.8570    61.8710    35.1490 N.2          1 SPF401   0.0000
     9 C8A         40.5040    61.9480    36.4360 C.2          1 SPF401   0.0000
    10 N9A         40.2170    60.7390    36.9920 N.pl3        1 SPF401   0.0000
    11 C1B         39.8020    60.4310    38.3580 C.3          1 SPF401   0.0000
    12 C2B         39.1880    61.6200    39.0750 C.3          1 SPF401   0.0000
    13 O2B         39.5060    61.5970    40.4790 O.3          1 SPF401   0.0000
    14 C3B         37.6910    61.4380    38.8240 C.3          1 SPF401   0.0000
    15 O3B         36.8100    62.0600    39.7770 O.3          1 SPF401   0.0000
    16 P3B         36.4290    63.6040    39.5910 P.3          1 SPF401   0.0000
    17 O7A         35.4820    63.7570    38.4630 O.co2        1 SPF401   0.0000
    18 O8A         37.6470    64.3940    39.3060 O.co2        1 SPF401  -1.0000
    19 O9A         35.7780    63.9330    41.0150 O.co2        1 SPF401  -1.0000
    20 C4B         37.5950    59.9230    38.8850 C.3          1 SPF401   0.0000
    21 O4B         38.8380    59.4460    38.3090 O.3          1 SPF401   0.0000
    22 C5B         36.4420    59.3010    38.1330 C.3          1 SPF401   0.0000
    23 O5B         36.4860    58.3410    37.2910 O.3          1 SPF401   0.0000
    24 P1A         35.8120    57.1570    36.3690 P.3          1 SPF401   0.0000
    25 O1A         36.4670    57.0920    35.0830 O.co2        1 SPF401   0.0000
    26 O2A         34.3640    57.4590    36.1890 O.co2        1 SPF401  -1.0000
    27 O3A         35.9350    55.6930    37.1270 O.3          1 SPF401   0.0000
    28 P2A         35.2480    54.4560    37.1020 P.3          1 SPF401   0.0000
    29 O4A         33.8270    54.7630    37.3790 O.co2        1 SPF401   0.0000
    30 O5A         35.7630    53.5650    38.1630 O.co2        1 SPF401  -1.0000
    31 O6A         35.3460    53.7570    35.7990 O.3          1 SPF401   0.0000
    32 CBP         36.1450    51.7870    34.6430 C.3          1 SPF401   0.0000
    33 CCP         36.2780    52.6750    35.8950 C.3          1 SPF401   0.0000
    34 CDP         34.8620    52.1490    33.8760 C.3          1 SPF401   0.0000
    35 CEP         37.3590    51.9970    33.7180 C.3          1 SPF401   0.0000
    36 CAP         35.9290    50.4920    35.1190 C.2          1 SPF401   0.0000
    37 OAP         36.4270    49.9340    36.3180 O.2          1 SPF401   0.0000
    38 C9P         35.0740    49.3210    34.3440 C.2          1 SPF401   0.0000
    39 O9P         33.7700    49.2800    34.4660 O.2          1 SPF401   0.0000
    40 N8P         35.8590    48.4100    33.6680 N.am         1 SPF401   0.0000
    41 C7P         35.0580    47.3380    32.7880 C.3          1 SPF401   0.0000
    42 C6P         34.9360    45.8500    33.3390 C.3          1 SPF401   0.0000
    43 C5P         33.5870    45.3410    32.9370 C.2          1 SPF401   0.0000
    44 O5P         32.8650    45.1360    33.9120 O.2          1 SPF401   0.0000
    45 N4P         33.2950    44.7680    31.8320 N.am         1 SPF401   0.0000
    46 C3P         31.7640    44.7110    31.4970 C.3          1 SPF401   0.0000
    47 C2P         31.5820    46.4650    31.4090 C.3          1 SPF401   0.0000
    48 S1P         30.6370    46.8140    30.2010 S.3          1 SPF401   0.0000
    49 C1          29.8870    45.3660    22.3370 C.ar         1 SPF401   0.0000
    50 C2          30.1590    46.6080    22.7980 C.ar         1 SPF401   0.0000
    51 C3          30.4060    46.8020    24.1140 C.ar         1 SPF401   0.0000
    52 C4          30.4690    45.8440    25.1500 C.ar         1 SPF401   0.0000
    53 C5          30.2280    44.5000    24.7620 C.ar         1 SPF401   0.0000
    54 C6          29.8730    44.2420    23.3020 C.ar         1 SPF401   0.0000
    55 C7          30.7850    46.5330    26.4100 C.2          1 SPF401   0.0000
    56 C8          31.2820    46.0770    27.4850 C.2          1 SPF401   0.0000
    57 C9          31.3160    46.1490    28.8800 C.2          1 SPF401   0.0000
    58 O10         32.2930    45.4770    29.1620 O.2          1 SPF401   0.0000
    59 O11         30.1750    47.6380    21.8820 O.3          1 SPF401   0.0000
    60 C11         29.7030    47.7040    20.5390 C.3          1 SPF401   0.0000
    61 O12         29.6200    45.2000    21.0270 O.3          1 SPF401  -1.0000
    62 O13         29.4900    43.0470    22.6790 O.3          1 SPF401   0.0000
    63 C13         28.2670    43.0100    21.9280 C.3          1 SPF401   0.0000
    64 H2A         40.3830    56.8953    34.9419 H            1 SPF401   0.0000
    65 H6A1        41.5510    61.3317    32.4696 H            1 SPF401   0.0000
    66 H6A2        41.5860    59.7611    31.7401 H            1 SPF401   0.0000
    67 H8A         40.4555    62.8097    36.9411 H            1 SPF401   0.0000
    68 H1B         40.5894    60.0998    38.8779 H            1 SPF401   0.0000
    69 H2B         39.5060    62.4738    38.6628 H            1 SPF401   0.0000
    70 H7          39.0911    62.3885    40.9278 H            1 SPF401   0.0000
    71 H3B         37.4643    61.7521    37.9021 H            1 SPF401   0.0000
    72 H4B         37.5500    59.6383    39.8426 H            1 SPF401   0.0000
    73 H5B1        36.0257    60.0599    37.6323 H            1 SPF401   0.0000
    74 H5B2        35.8138    58.9867    38.8448 H            1 SPF401   0.0000
    75 HCP1        36.0807    52.1339    36.7125 H            1 SPF401   0.0000
    76 HCP2        37.2082    53.0376    35.9518 H            1 SPF401   0.0000
    77 HDP1        34.7832    51.5686    33.0655 H            1 SPF401   0.0000
    78 HDP2        34.0684    52.0054    34.4673 H            1 SPF401   0.0000
    79 HDP3        34.9002    53.1084    33.5966 H            1 SPF401   0.0000
    80 HEP1        37.2653    51.4177    32.9083 H            1 SPF401   0.0000
    81 HEP2        37.4030    52.9561    33.4383 H            1 SPF401   0.0000
    82 HEP3        38.1967    51.7536    34.2069 H            1 SPF401   0.0000
    83 H8P         36.8574    48.4184    33.7235 H            1 SPF401   0.0000
    84 H7P1        35.5109    47.2879    31.8978 H            1 SPF401   0.0000
    85 H7P2        34.1284    47.6872    32.6699 H            1 SPF401   0.0000
    86 H6P1        35.0216    45.8451    34.3353 H            1 SPF401   0.0000
    87 H6P2        35.6518    45.2768    32.9401 H            1 SPF401   0.0000
    88 H4P         33.9917    44.3843    31.2258 H            1 SPF401   0.0000
    89 H3P1        31.2181    44.2957    32.2246 H            1 SPF401   0.0000
    90 H3P2        31.5686    44.2520    30.6303 H            1 SPF401   0.0000
    91 H2P1        32.4766    46.8896    31.2699 H            1 SPF401   0.0000
    92 H2P2        31.1804    46.8047    32.2595 H            1 SPF401   0.0000
    93 H30         30.5652    47.7499    24.3900 H            1 SPF401   0.0000
    94 H31         30.2888    43.7507    25.4214 H            1 SPF401   0.0000
    95 H32         30.5763    47.5109    26.4216 H            1 SPF401   0.0000
    96 H33         31.9247    45.3581    27.2202 H            1 SPF401   0.0000
    97 H34         29.8792    48.6158    20.1682 H            1 SPF401   0.0000
    98 H35         30.1786    47.0210    19.9846 H            1 SPF401   0.0000
    99 H36         28.7200    47.5215    20.5218 H            1 SPF401   0.0000
   100 H37         28.1363    42.0940    21.5488 H            1 SPF401   0.0000
   101 H38         27.4999    43.2346    22.5289 H            1 SPF401   0.0000
   102 H39         28.3130    43.6756    21.1831 H            1 SPF401   0.0000
@<TRIPOS>BOND
     1    1    2      ar
     2    1    6      ar
     3    2    3      ar
     4    3    4      ar
     5    4    5      ar
     6    4   10       1
     7    5    6      ar
     8    5    8       1
     9    6    7       1
    10    8    9       2
    11    9   10       1
    12   10   11       1
    13   11   12       1
    14   11   21       1
    15   12   13       1
    16   12   14       1
    17   14   15       1
    18   14   20       1
    19   15   16       1
    20   16   17      ar
    21   16   18      ar
    22   16   19      ar
    23   20   21       1
    24   20   22       1
    25   22   23       1
    26   23   24       1
    27   24   25      ar
    28   24   26      ar
    29   24   27       1
    30   27   28       1
    31   28   29      ar
    32   28   30      ar
    33   28   31       1
    34   31   33       1
    35   32   33       1
    36   32   34       1
    37   32   35       1
    38   32   36       1
    39   36   37       2
    40   36   38       1
    41   38   39       2
    42   38   40      am
    43   40   41       1
    44   41   42       1
    45   42   43       1
    46   43   44       2
    47   43   45      am
    48   45   46       1
    49   46   47       1
    50   47   48       1
    51   48   57       1
    52   49   50      ar
    53   49   54      ar
    54   49   61       1
    55   50   51      ar
    56   50   59       1
    57   51   52      ar
    58   52   53      ar
    59   52   55       1
    60   53   54      ar
    61   54   62       1
    62   55   56       2
    63   56   57       1
    64   57   58       2
    65   59   60       1
    66   62   63       1
    67    2   64       1
    68    7   65       1
    69    7   66       1
    70    9   67       1
    71   11   68       1
    72   12   69       1
    73   13   70       1
    74   14   71       1
    75   63  102       1
    76   63  101       1
    77   20   72       1
    78   22   73       1
    79   22   74       1
    80   63  100       1
    81   60   99       1
    82   33   75       1
    83   33   76       1
    84   34   77       1
    85   34   78       1
    86   34   79       1
    87   35   80       1
    88   35   81       1
    89   35   82       1
    90   40   83       1
    91   41   84       1
    92   41   85       1
    93   42   86       1
    94   42   87       1
    95   45   88       1
    96   46   89       1
    97   46   90       1
    98   47   91       1
    99   47   92       1
   100   51   93       1
   101   53   94       1
   102   55   95       1
   103   56   96       1
   104   60   97       1
   105   60   98       1
@<TRIPOS>SUBSTRUCTURE
     1 SPF401      1 GROUP             4 A     SPF     0 **** SPF A 401
