@<TRIPOS>MOLECULE
3d2e_ATP_1_ligand
   43    45     1     0     0
SMALL
NO_CHARGES


@<TRIPOS>ATOM
     1 PG          88.2830    75.8590   182.1110 P.3          1 ATP1001   0.0000
     2 O1G         89.2420    75.5350   183.2250 O.co2        1 ATP1001   0.0000
     3 O2G         88.8280    75.3100   180.8380 O.co2        1 ATP1001  -1.0000
     4 O3G         86.8260    75.5800   182.3340 O.co2        1 ATP1001  -1.0000
     5 PB          87.5300    78.6660   182.7590 P.3          1 ATP1001   0.0000
     6 O1B         88.5480    79.4760   183.4680 O.co2        1 ATP1001   0.0000
     7 O2B         86.4020    78.0720   183.5760 O.co2        1 ATP1001  -1.0000
     8 O3B         88.3630    77.4920   181.9610 O.3          1 ATP1001   0.0000
     9 PA          85.6650    80.3020   181.2070 P.3          1 ATP1001   0.0000
    10 O1A         85.4640    81.2220   182.3710 O.co2        1 ATP1001   0.0000
    11 O2A         84.5300    79.3940   180.7310 O.co2        1 ATP1001  -1.0000
    12 O3A         86.9870    79.4280   181.4420 O.3          1 ATP1001   0.0000
    13 O5'         85.9990    81.1680   179.9120 O.3          1 ATP1001   0.0000
    14 C5'         87.1140    82.0470   179.8260 C.3          1 ATP1001   0.0000
    15 C4'         87.5510    81.9130   178.3820 C.3          1 ATP1001   0.0000
    16 O4'         86.4420    82.3220   177.5560 O.3          1 ATP1001   0.0000
    17 C3'         88.7260    82.8150   178.0450 C.3          1 ATP1001   0.0000
    18 O3'         89.5530    82.1360   177.1060 O.3          1 ATP1001   0.0000
    19 C2'         88.0670    83.9860   177.3480 C.3          1 ATP1001   0.0000
    20 O2'         88.9230    84.5660   176.3980 O.3          1 ATP1001   0.0000
    21 C1'         86.9080    83.3340   176.6360 C.3          1 ATP1001   0.0000
    22 N9          85.8820    84.3400   176.3080 N.pl3        1 ATP1001   0.0000
    23 C8          85.2140    85.0830   177.2090 C.2          1 ATP1001   0.0000
    24 N7          84.3390    85.9070   176.6020 N.2          1 ATP1001   0.0000
    25 C5          84.4510    85.7020   175.2710 C.ar         1 ATP1001   0.0000
    26 C6          83.8020    86.2510   174.0490 C.ar         1 ATP1001   0.0000
    27 N6          82.8480    87.2040   174.1490 N.pl3        1 ATP1001   0.0000
    28 N1          84.2040    85.7600   172.8510 N.ar         1 ATP1001   0.0000
    29 C2          85.1610    84.7920   172.7490 C.ar         1 ATP1001   0.0000
    30 N3          85.7740    84.2390   173.8150 N.ar         1 ATP1001   0.0000
    31 C4          85.4700    84.6520   175.0790 C.ar         1 ATP1001   0.0000
    32 H5'1        87.8430    81.7632   180.4489 H            1 ATP1001   0.0000
    33 H5'2        86.8457    82.9877   180.0335 H            1 ATP1001   0.0000
    34 H4'         87.7870    80.9612   178.1860 H            1 ATP1001   0.0000
    35 H3'         89.2322    83.0966   178.8601 H            1 ATP1001   0.0000
    36 H5          89.8804    81.2807   177.5075 H            1 ATP1001   0.0000
    37 H2'         87.7481    84.6657   178.0085 H            1 ATP1001   0.0000
    38 H7          89.4637    85.2864   176.8323 H            1 ATP1001   0.0000
    39 H1'         87.2323    82.8995   175.7957 H            1 ATP1001   0.0000
    40 H9          85.3494    85.0303   178.1984 H            1 ATP1001   0.0000
    41 H10         82.4165    87.5680   173.3236 H            1 ATP1001   0.0000
    42 H11         82.5740    87.5448   175.0483 H            1 ATP1001   0.0000
    43 H12         85.4209    84.4766   171.8363 H            1 ATP1001   0.0000
@<TRIPOS>BOND
     1    1    2      ar
     2    1    3      ar
     3    1    4      ar
     4    1    8       1
     5    5    6      ar
     6    5    7      ar
     7    5    8       1
     8    5   12       1
     9    9   10      ar
    10    9   11      ar
    11    9   12       1
    12    9   13       1
    13   13   14       1
    14   14   15       1
    15   15   16       1
    16   15   17       1
    17   16   21       1
    18   17   18       1
    19   17   19       1
    20   19   20       1
    21   19   21       1
    22   21   22       1
    23   22   23       1
    24   22   31       1
    25   23   24       2
    26   24   25       1
    27   25   26      ar
    28   25   31      ar
    29   26   27       1
    30   26   28      ar
    31   28   29      ar
    32   29   30      ar
    33   30   31      ar
    34   29   43       1
    35   27   42       1
    36   27   41       1
    37   23   40       1
    38   14   32       1
    39   14   33       1
    40   15   34       1
    41   17   35       1
    42   18   36       1
    43   19   37       1
    44   20   38       1
    45   21   39       1
@<TRIPOS>SUBSTRUCTURE
     1 ATP1001     1 GROUP             4 A     ATP     0 **** ATP A1001
