@<TRIPOS>MOLECULE
2ijg_FAD_2_ligand
   84    89     1     0     0
SMALL
NO_CHARGES


@<TRIPOS>ATOM
     1 PA         -28.4660    22.0490     5.5190 P.3          1 FAD526   0.0000
     2 O1A        -28.5430    21.2040     4.3200 O.co2        1 FAD526   0.0000
     3 O2A        -27.4640    23.0230     5.9800 O.co2        1 FAD526  -1.0000
     4 O5B        -29.9400    22.2590     6.0440 O.3          1 FAD526   0.0000
     5 C5B        -30.2470    22.9830     7.2060 C.3          1 FAD526   0.0000
     6 C4B        -31.6150    23.6180     7.0560 C.3          1 FAD526   0.0000
     7 O4B        -31.7260    24.4700     8.2220 O.3          1 FAD526   0.0000
     8 C3B        -31.7940    24.5420     5.8310 C.3          1 FAD526   0.0000
     9 O3B        -32.4990    23.9680     4.7480 O.3          1 FAD526   0.0000
    10 C2B        -32.4770    25.7710     6.4110 C.3          1 FAD526   0.0000
    11 O2B        -33.8810    25.8170     6.3350 O.3          1 FAD526   0.0000
    12 C1B        -31.9560    25.8310     7.8330 C.3          1 FAD526   0.0000
    13 N9A        -30.7040    26.6000     8.0360 N.pl3        1 FAD526   0.0000
    14 C8A        -29.3960    26.1960     7.9420 C.2          1 FAD526   0.0000
    15 N7A        -28.5120    27.1270     8.1920 N.2          1 FAD526   0.0000
    16 C5A        -29.2860    28.2290     8.4690 C.ar         1 FAD526   0.0000
    17 C6A        -28.9350    29.5700     8.8220 C.ar         1 FAD526   0.0000
    18 N6A        -27.6620    29.9510     8.9340 N.pl3        1 FAD526   0.0000
    19 N1A        -29.9440    30.4590     9.0410 N.ar         1 FAD526   0.0000
    20 C2A        -31.2280    30.0320     8.9170 C.ar         1 FAD526   0.0000
    21 N3A        -31.6690    28.8030     8.5940 N.ar         1 FAD526   0.0000
    22 C4A        -30.6050    27.9310     8.3790 C.ar         1 FAD526   0.0000
    23 N1         -31.4200    30.6910     3.7980 N.2          1 FAD526   0.0000
    24 C2         -32.7000    30.8290     3.4330 C.2          1 FAD526   0.0000
    25 O2         -33.5000    29.8550     3.4290 O.2          1 FAD526   0.0000
    26 N3         -33.1280    32.0750     2.9790 N.pl3        1 FAD526   0.0000
    27 C4         -32.3350    33.2310     2.9660 C.2          1 FAD526   0.0000
    28 O4         -32.8320    34.2760     2.5250 O.2          1 FAD526   0.0000
    29 C4X        -30.9840    33.0780     3.4570 C.2          1 FAD526   0.0000
    30 N5         -30.0610    34.1640     3.5010 N.2          1 FAD526   0.0000
    31 C5X        -28.7270    33.9040     3.9270 C.ar         1 FAD526   0.0000
    32 C6         -27.7850    34.9790     3.9930 C.ar         1 FAD526   0.0000
    33 C7         -26.4800    34.7850     4.4170 C.ar         1 FAD526   0.0000
    34 C7M        -25.5550    36.0060     4.4510 C.3          1 FAD526   0.0000
    35 C8         -26.0420    33.4890     4.8150 C.ar         1 FAD526   0.0000
    36 C8M        -24.6380    33.2040     5.3130 C.3          1 FAD526   0.0000
    37 C9         -26.9720    32.3890     4.7420 C.ar         1 FAD526   0.0000
    38 C9A        -28.2900    32.5660     4.2980 C.ar         1 FAD526   0.0000
    39 N10        -29.2880    31.5220     4.2020 N.pl3        1 FAD526   0.0000
    40 C10        -30.5780    31.7900     3.8160 C.2          1 FAD526   0.0000
    41 C1'        -29.1720    30.1050     4.3450 C.3          1 FAD526   0.0000
    42 C2'        -28.2340    29.0580     4.8290 C.3          1 FAD526   0.0000
    43 O2'        -26.9330    29.3230     4.2960 O.3          1 FAD526   0.0000
    44 C3'        -29.1390    28.0290     4.1590 C.3          1 FAD526   0.0000
    45 O3'        -30.3580    28.0030     4.9250 O.3          1 FAD526   0.0000
    46 C4'        -28.7720    26.5520     4.0190 C.3          1 FAD526   0.0000
    47 O4'        -27.5510    26.5350     3.2590 O.3          1 FAD526   0.0000
    48 C5'        -29.9730    26.0390     3.2230 C.3          1 FAD526   0.0000
    49 O5'        -30.0940    24.6610     2.8090 O.3          1 FAD526   0.0000
    50 P          -29.0330    23.5440     2.9310 P.3          1 FAD526   0.0000
    51 O1P        -29.6580    22.4010     2.3400 O.co2        1 FAD526   0.0000
    52 O2P        -27.7770    24.0190     2.3160 O.co2        1 FAD526  -1.0000
    53 O3P        -28.7700    23.3090     4.5310 O.3          1 FAD526   0.0000
    54 H5B1       -29.5610    23.6972     7.3453 H            1 FAD526   0.0000
    55 H5B2       -30.2500    22.3658     7.9928 H            1 FAD526   0.0000
    56 H4B        -32.3273    22.9163     7.0691 H            1 FAD526   0.0000
    57 H3B        -30.8872    24.8114     5.5068 H            1 FAD526   0.0000
    58 H5         -31.9133    23.9567     3.9375 H            1 FAD526   0.0000
    59 H2B        -32.1223    26.5703     5.9259 H            1 FAD526   0.0000
    60 H7         -34.1543    26.2563     5.4792 H            1 FAD526   0.0000
    61 H1B        -32.6681    26.2165     8.4197 H            1 FAD526   0.0000
    62 H8A        -29.1381    25.2605     7.7006 H            1 FAD526   0.0000
    63 H6A1       -27.4425    30.8945     9.1821 H            1 FAD526   0.0000
    64 H6A2       -26.9269    29.2932     8.7699 H            1 FAD526   0.0000
    65 H2A        -31.9348    30.7186     9.0875 H            1 FAD526   0.0000
    66 H13        -34.0655    32.1497     2.6390 H            1 FAD526   0.0000
    67 H14        -28.0769    35.8972     3.7253 H            1 FAD526   0.0000
    68 H7M1       -24.6496    35.7294     4.7730 H            1 FAD526   0.0000
    69 H7M2       -25.4783    36.3918     3.5316 H            1 FAD526   0.0000
    70 H7M3       -25.9334    36.6937     5.0706 H            1 FAD526   0.0000
    71 H8M1       -24.5537    32.2325     5.5347 H            1 FAD526   0.0000
    72 H8M2       -23.9771    33.4420     4.6012 H            1 FAD526   0.0000
    73 H8M3       -24.4574    33.7496     6.1314 H            1 FAD526   0.0000
    74 H21        -26.6688    31.4761     5.0153 H            1 FAD526   0.0000
    75 H1'1       -29.3222    29.8055     3.4028 H            1 FAD526   0.0000
    76 H1'2       -29.9836    29.9017     4.8928 H            1 FAD526   0.0000
    77 H2'        -28.2313    28.9759     5.8256 H            1 FAD526   0.0000
    78 H25        -26.2873    29.4624     5.0467 H            1 FAD526   0.0000
    79 H3'        -29.3629    28.3723     3.2468 H            1 FAD526   0.0000
    80 H27        -31.0005    28.6723     4.5519 H            1 FAD526   0.0000
    81 H4'        -28.6775    26.0963     4.9041 H            1 FAD526   0.0000
    82 H29        -27.0328    27.3704     3.4420 H            1 FAD526   0.0000
    83 H5'1       -30.0059    26.5851     2.3859 H            1 FAD526   0.0000
    84 H5'2       -30.7801    26.2341     3.7802 H            1 FAD526   0.0000
@<TRIPOS>BOND
     1    1    2      ar
     2    1    3      ar
     3    1    4       1
     4    1   53       1
     5    4    5       1
     6    5    6       1
     7    6    7       1
     8    6    8       1
     9    7   12       1
    10    8    9       1
    11    8   10       1
    12   10   11       1
    13   10   12       1
    14   12   13       1
    15   13   14       1
    16   13   22       1
    17   14   15       2
    18   15   16       1
    19   16   17      ar
    20   16   22      ar
    21   17   18       1
    22   17   19      ar
    23   19   20      ar
    24   20   21      ar
    25   21   22      ar
    26   23   24       1
    27   23   40       2
    28   24   25       2
    29   24   26       1
    30   26   27       1
    31   27   28       2
    32   27   29       1
    33   29   30       2
    34   29   40       1
    35   30   31       1
    36   31   32      ar
    37   31   38      ar
    38   32   33      ar
    39   33   34       1
    40   33   35      ar
    41   35   36       1
    42   35   37      ar
    43   37   38      ar
    44   38   39       1
    45   39   40       1
    46   39   41       1
    47   41   42       1
    48   42   43       1
    49   42   44       1
    50   44   45       1
    51   44   46       1
    52   46   47       1
    53   46   48       1
    54   48   49       1
    55   49   50       1
    56   50   51      ar
    57   50   52      ar
    58   50   53       1
    59   48   84       1
    60    5   54       1
    61    5   55       1
    62    6   56       1
    63    8   57       1
    64    9   58       1
    65   10   59       1
    66   11   60       1
    67   12   61       1
    68   14   62       1
    69   18   63       1
    70   18   64       1
    71   20   65       1
    72   26   66       1
    73   32   67       1
    74   34   68       1
    75   34   69       1
    76   34   70       1
    77   36   71       1
    78   36   72       1
    79   36   73       1
    80   37   74       1
    81   41   75       1
    82   41   76       1
    83   42   77       1
    84   43   78       1
    85   44   79       1
    86   45   80       1
    87   46   81       1
    88   47   82       1
    89   48   83       1
@<TRIPOS>SUBSTRUCTURE
     1 FAD526      1 GROUP             4 X     FAD     0 **** FAD X 526
