@<TRIPOS>MOLECULE
4xlv_ACP_1_ligand
   45    47     1     0     0
SMALL
NO_CHARGES


@<TRIPOS>ATOM
     1 PG          27.4870    10.2470    56.4460 P.3          1 ACP1301   0.0000
     2 O1G         27.4510     9.1640    55.4190 O.co2        1 ACP1301   0.0000
     3 O2G         26.0400    10.9950    56.4980 O.co2        1 ACP1301  -1.0000
     4 O3G         28.6730    11.3180    56.1790 O.co2        1 ACP1301  -1.0000
     5 PB          29.2680     8.5250    58.1970 P.3          1 ACP1301   0.0000
     6 O1B         29.3910     7.5050    57.1410 O.co2        1 ACP1301   0.0000
     7 O2B         30.5680     9.4830    58.2730 O.co2        1 ACP1301  -1.0000
     8 C3B         27.7580     9.4940    58.0710 C.3          1 ACP1301   0.0000
     9 PA          28.0560     6.7410    60.1180 P.3          1 ACP1301   0.0000
    10 O1A         27.6340     5.8080    59.0010 O.co2        1 ACP1301   0.0000
    11 O2A         26.9860     7.4360    60.9170 O.co2        1 ACP1301  -1.0000
    12 O3A         29.2020     7.7840    59.6250 O.3          1 ACP1301   0.0000
    13 O5'         29.0500     6.0080    61.1520 O.3          1 ACP1301   0.0000
    14 C5'         30.4430     5.9150    60.8540 C.3          1 ACP1301   0.0000
    15 C4'         30.9350     4.7490    61.7020 C.3          1 ACP1301   0.0000
    16 O4'         30.8920     5.1200    63.0860 O.3          1 ACP1301   0.0000
    17 C3'         29.9990     3.5660    61.5530 C.3          1 ACP1301   0.0000
    18 O3'         30.4130     2.7290    60.4690 O.3          1 ACP1301   0.0000
    19 C2'         30.0050     2.9110    62.9250 C.3          1 ACP1301   0.0000
    20 O2'         30.9750     1.8650    63.1010 O.3          1 ACP1301   0.0000
    21 C1'         30.2880     4.0860    63.8560 C.3          1 ACP1301   0.0000
    22 N9          28.9510     4.4950    64.3360 N.pl3        1 ACP1301   0.0000
    23 C8          28.0580     5.2970    63.7260 C.2          1 ACP1301   0.0000
    24 N7          26.9200     5.4050    64.4550 N.2          1 ACP1301   0.0000
    25 C5          27.0760     4.6400    65.5520 C.ar         1 ACP1301   0.0000
    26 C6          26.2860     4.2910    66.7450 C.ar         1 ACP1301   0.0000
    27 N6          25.0500     4.7780    66.9570 N.pl3        1 ACP1301   0.0000
    28 N1          26.8270     3.4550    67.6320 N.ar         1 ACP1301   0.0000
    29 C2          28.0590     2.9500    67.4730 C.ar         1 ACP1301   0.0000
    30 N3          28.8430     3.2230    66.4330 N.ar         1 ACP1301   0.0000
    31 C4          28.4100     4.0370    65.4570 C.ar         1 ACP1301   0.0000
    32 H3B1        26.9835     8.8939    58.2709 H            1 ACP1301   0.0000
    33 H3B2        27.7976    10.2252    58.7520 H            1 ACP1301   0.0000
    34 H5'1        30.9158     6.7596    61.1054 H            1 ACP1301   0.0000
    35 H5'2        30.5852     5.7301    59.8816 H            1 ACP1301   0.0000
    36 H4'         31.8651     4.4935    61.4380 H            1 ACP1301   0.0000
    37 H3'         29.0781     3.9064    61.3631 H            1 ACP1301   0.0000
    38 H7          29.6814     2.6777    59.7892 H            1 ACP1301   0.0000
    39 H2'         29.0933     2.5496    63.1203 H            1 ACP1301   0.0000
    40 H9          31.1415     1.4139    62.2242 H            1 ACP1301   0.0000
    41 H1'         30.8764     3.8110    64.6164 H            1 ACP1301   0.0000
    42 H11         28.2137     5.7533    62.8499 H            1 ACP1301   0.0000
    43 H12         24.5444     4.5178    67.7796 H            1 ACP1301   0.0000
    44 H13         24.6369     5.4002    66.2920 H            1 ACP1301   0.0000
    45 H14         28.4090     2.3322    68.1771 H            1 ACP1301   0.0000
@<TRIPOS>BOND
     1    1    2      ar
     2    1    3      ar
     3    1    4      ar
     4    1    8       1
     5    5    6      ar
     6    5    7      ar
     7    5    8       1
     8    5   12       1
     9    9   10      ar
    10    9   11      ar
    11    9   12       1
    12    9   13       1
    13   13   14       1
    14   14   15       1
    15   15   16       1
    16   15   17       1
    17   16   21       1
    18   17   18       1
    19   17   19       1
    20   19   20       1
    21   19   21       1
    22   21   22       1
    23   22   23       1
    24   22   31       1
    25   23   24       2
    26   24   25       1
    27   25   26      ar
    28   25   31      ar
    29   26   27       1
    30   26   28      ar
    31   28   29      ar
    32   29   30      ar
    33   30   31      ar
    34   29   45       1
    35   27   44       1
    36   27   43       1
    37    8   32       1
    38    8   33       1
    39   23   42       1
    40   14   34       1
    41   14   35       1
    42   15   36       1
    43   17   37       1
    44   18   38       1
    45   19   39       1
    46   20   40       1
    47   21   41       1
@<TRIPOS>SUBSTRUCTURE
     1 ACP1301     1 GROUP             4 A     ACP     0 **** ACP A1301
