@<TRIPOS>MOLECULE
3lg5_BTM_1_ligand
   36    36     1     0     0
SMALL
NO_CHARGES


@<TRIPOS>ATOM
     1 N            6.1070    -0.5760    18.3790 N.4          1 BTM704   1.0000
     2 C1           4.6780    -0.5080    18.7900 C.3          1 BTM704   0.0000
     3 C2           6.2090    -0.0140    17.0000 C.3          1 BTM704   0.0000
     4 C3           7.6570     0.1160    16.4380 C.3          1 BTM704   0.0000
     5 C4           6.5300    -1.9920    18.2190 C.3          1 BTM704   0.0000
     6 C5           6.0870    -2.7550    16.9500 C.3          1 BTM704   0.0000
     7 C6           6.9420     0.0320    19.4620 C.3          1 BTM704   0.0000
     8 C7           6.8800    -0.3050    20.9630 C.3          1 BTM704   0.0000
     9 C8           4.0000     0.8670    18.6010 C.ar         1 BTM704   0.0000
    10 C9           3.2420     1.0980    17.4140 C.ar         1 BTM704   0.0000
    11 C10          2.5880     2.4830    17.2500 C.ar         1 BTM704   0.0000
    12 C11          2.7090     3.4680    18.2790 C.ar         1 BTM704   0.0000
    13 C12          3.4890     3.1770    19.4830 C.ar         1 BTM704   0.0000
    14 C13          4.1360     1.8440    19.6860 C.ar         1 BTM704   0.0000
    15 H1           4.6238    -0.7483    19.7592 H            1 BTM704   0.0000
    16 H2           4.1695    -1.1796    18.2511 H            1 BTM704   0.0000
    17 H3           5.7975     0.8974    17.0068 H            1 BTM704   0.0000
    18 H4           5.6914    -0.6089    16.3851 H            1 BTM704   0.0000
    19 H5           7.6232     0.4993    15.5150 H            1 BTM704   0.0000
    20 H6           8.1915     0.7192    17.0301 H            1 BTM704   0.0000
    21 H7           8.0854    -0.7871    16.4084 H            1 BTM704   0.0000
    22 H8           6.1752    -2.4968    19.0059 H            1 BTM704   0.0000
    23 H9           7.5297    -2.0054    18.2376 H            1 BTM704   0.0000
    24 H10          6.4434    -3.6888    16.9811 H            1 BTM704   0.0000
    25 H11          5.0882    -2.7807    16.9081 H            1 BTM704   0.0000
    26 H12          6.4427    -2.2892    16.1398 H            1 BTM704   0.0000
    27 H13          6.7625     1.0143    19.4083 H            1 BTM704   0.0000
    28 H14          7.8881    -0.1491    19.1936 H            1 BTM704   0.0000
    29 H15          7.5486     0.2506    21.4573 H            1 BTM704   0.0000
    30 H16          5.9628    -0.1105    21.3107 H            1 BTM704   0.0000
    31 H17          7.0884    -1.2740    21.0960 H            1 BTM704   0.0000
    32 H18          3.1395     0.3889    16.7164 H            1 BTM704   0.0000
    33 H19          2.0752     2.6946    16.4180 H            1 BTM704   0.0000
    34 H20          2.2607     4.3560    18.1763 H            1 BTM704   0.0000
    35 H21          3.5912     3.8833    20.1835 H            1 BTM704   0.0000
    36 H22          4.6384     1.6288    20.5234 H            1 BTM704   0.0000
@<TRIPOS>BOND
     1    1    2       1
     2    1    3       1
     3    1    5       1
     4    1    7       1
     5    2    9       1
     6    3    4       1
     7    5    6       1
     8    7    8       1
     9    9   10      ar
    10    9   14      ar
    11   10   11      ar
    12   11   12      ar
    13   12   13      ar
    14   13   14      ar
    15    2   15       1
    16    2   16       1
    17    3   17       1
    18    3   18       1
    19    4   19       1
    20    4   20       1
    21    4   21       1
    22    5   22       1
    23    5   23       1
    24    6   24       1
    25    6   25       1
    26    6   26       1
    27    7   27       1
    28    7   28       1
    29    8   29       1
    30    8   30       1
    31    8   31       1
    32   10   32       1
    33   11   33       1
    34   12   34       1
    35   13   35       1
    36   14   36       1
@<TRIPOS>SUBSTRUCTURE
     1 BTM704      1 GROUP             4 A     BTM     0 **** BTM A 704
