@<TRIPOS>MOLECULE
2g37_FAD_1_ligand
   84    89     1     0     0
SMALL
NO_CHARGES


@<TRIPOS>ATOM
     1 PA          13.5120    19.3820    15.2660 P.3          1 FAD2001   0.0000
     2 O1A         13.2390    18.2030    16.1580 O.co2        1 FAD2001   0.0000
     3 O2A         14.3750    20.5300    15.6960 O.co2        1 FAD2001  -1.0000
     4 O5B         12.1210    20.0440    14.8060 O.3          1 FAD2001   0.0000
     5 C5B         12.1360    21.3650    14.2350 C.3          1 FAD2001   0.0000
     6 C4B         10.8100    21.5340    13.5320 C.3          1 FAD2001   0.0000
     7 O4B         10.6440    20.4230    12.6530 O.3          1 FAD2001   0.0000
     8 C3B          9.6750    21.4180    14.5330 C.3          1 FAD2001   0.0000
     9 O3B          9.3370    22.7040    15.0500 O.3          1 FAD2001   0.0000
    10 C2B          8.5650    20.8120    13.7190 C.3          1 FAD2001   0.0000
    11 O2B          7.8680    21.8680    13.0560 O.3          1 FAD2001   0.0000
    12 C1B          9.2720    20.0150    12.6430 C.3          1 FAD2001   0.0000
    13 N9A          9.0550    18.5910    12.9650 N.pl3        1 FAD2001   0.0000
    14 C8A          9.8600    17.7570    13.6290 C.2          1 FAD2001   0.0000
    15 N7A          9.2530    16.5500    13.7250 N.2          1 FAD2001   0.0000
    16 C5A          8.0470    16.6540    13.1120 C.ar         1 FAD2001   0.0000
    17 C6A          6.9920    15.7740    12.8870 C.ar         1 FAD2001   0.0000
    18 N6A          7.0730    14.5070    13.3530 N.pl3        1 FAD2001   0.0000
    19 N1A          5.8910    16.1990    12.2160 N.ar         1 FAD2001   0.0000
    20 C2A          5.7890    17.4660    11.7720 C.ar         1 FAD2001   0.0000
    21 N3A          6.7920    18.3430    11.9770 N.ar         1 FAD2001   0.0000
    22 C4A          7.9290    17.9500    12.6360 C.ar         1 FAD2001   0.0000
    23 N1          21.1380    12.2460    14.7840 N.2          1 FAD2001   0.0000
    24 C2          22.3720    11.8840    15.1900 C.2          1 FAD2001   0.0000
    25 O2          22.8170    12.3610    16.2430 O.2          1 FAD2001   0.0000
    26 N3          23.1110    11.0350    14.4490 N.pl3        1 FAD2001   0.0000
    27 C4          22.6450    10.5480    13.2660 C.2          1 FAD2001   0.0000
    28 O4          23.3690     9.7640    12.6230 O.2          1 FAD2001   0.0000
    29 C4X         21.3670    10.8980    12.8090 C.2          1 FAD2001   0.0000
    30 N5          20.8570    10.4250    11.6310 N.2          1 FAD2001   0.0000
    31 C5X         19.6110    10.8090    11.1990 C.ar         1 FAD2001   0.0000
    32 C6          19.0710    10.3550     9.9760 C.ar         1 FAD2001   0.0000
    33 C7          17.7990    10.7680     9.5460 C.ar         1 FAD2001   0.0000
    34 C7M         17.2530    10.2630     8.2100 C.3          1 FAD2001   0.0000
    35 C8          17.0780    11.6690    10.3450 C.ar         1 FAD2001   0.0000
    36 C8M         15.7090    12.1830     9.9910 C.3          1 FAD2001   0.0000
    37 C9          17.6040    12.1200    11.5660 C.ar         1 FAD2001   0.0000
    38 C9A         18.8590    11.6810    11.9840 C.ar         1 FAD2001   0.0000
    39 N10         19.3910    12.1700    13.2100 N.pl3        1 FAD2001   0.0000
    40 C10         20.6170    11.7710    13.6170 C.2          1 FAD2001   0.0000
    41 C1'         18.5480    13.0200    14.0510 C.3          1 FAD2001   0.0000
    42 C2'         18.7050    14.5170    14.1770 C.3          1 FAD2001   0.0000
    43 O2'         19.9720    14.7300    14.7920 O.3          1 FAD2001   0.0000
    44 C3'         17.5550    15.1280    15.0100 C.3          1 FAD2001   0.0000
    45 O3'         17.6540    14.7360    16.3850 O.3          1 FAD2001   0.0000
    46 C4'         16.1270    14.7950    14.5190 C.3          1 FAD2001   0.0000
    47 O4'         16.0580    14.7450    13.0880 O.3          1 FAD2001   0.0000
    48 C5'         15.1310    15.8830    14.8990 C.3          1 FAD2001   0.0000
    49 O5'         15.5780    17.1770    14.4740 O.3          1 FAD2001   0.0000
    50 P           14.9100    17.8790    13.1900 P.3          1 FAD2001   0.0000
    51 O1P         15.8950    18.6260    12.3210 O.co2        1 FAD2001   0.0000
    52 O2P         14.0250    16.9130    12.4680 O.co2        1 FAD2001  -1.0000
    53 O3P         13.9590    18.9900    13.7730 O.3          1 FAD2001   0.0000
    54 H5B1        12.8883    21.4521    13.5820 H            1 FAD2001   0.0000
    55 H5B2        12.2375    22.0525    14.9540 H            1 FAD2001   0.0000
    56 H4B         10.7696    22.4007    13.0348 H            1 FAD2001   0.0000
    57 H3B          9.9328    20.8028    15.2780 H            1 FAD2001   0.0000
    58 H5          10.1503    23.2859    15.0541 H            1 FAD2001   0.0000
    59 H2B          7.9555    20.2444    14.2724 H            1 FAD2001   0.0000
    60 H7           7.9170    22.6991    13.6100 H            1 FAD2001   0.0000
    61 H1B          8.8674    20.2224    11.7523 H            1 FAD2001   0.0000
    62 H8A         10.7620    17.9861    13.9949 H            1 FAD2001   0.0000
    63 H6A1         6.3203    13.8676    13.1964 H            1 FAD2001   0.0000
    64 H6A2         7.8856    14.2096    13.8542 H            1 FAD2001   0.0000
    65 H2A          4.9645    17.7581    11.2874 H            1 FAD2001   0.0000
    66 H13         24.0157    10.7584    14.7730 H            1 FAD2001   0.0000
    67 H14         19.6031     9.7288     9.4062 H            1 FAD2001   0.0000
    68 H7M1        16.3434    10.6484     8.0545 H            1 FAD2001   0.0000
    69 H7M2        17.8653    10.5453     7.4715 H            1 FAD2001   0.0000
    70 H7M3        17.1932     9.2650     8.2302 H            1 FAD2001   0.0000
    71 H8M1        15.3936    12.8095    10.7038 H            1 FAD2001   0.0000
    72 H8M2        15.7503    12.6665     9.1166 H            1 FAD2001   0.0000
    73 H8M3        15.0732    11.4146     9.9173 H            1 FAD2001   0.0000
    74 H21         17.0798    12.7544    12.1341 H            1 FAD2001   0.0000
    75 H1'1        18.6429    12.6599    14.9791 H            1 FAD2001   0.0000
    76 H1'2        17.6122    12.8731    13.7305 H            1 FAD2001   0.0000
    77 H2'         18.7069    14.9272    13.2650 H            1 FAD2001   0.0000
    78 H25         20.5931    13.9873    14.5417 H            1 FAD2001   0.0000
    79 H3'         17.6577    16.1221    14.9755 H            1 FAD2001   0.0000
    80 H27         16.9011    15.1425    16.9026 H            1 FAD2001   0.0000
    81 H4'         15.8335    13.9193    14.9023 H            1 FAD2001   0.0000
    82 H29         16.7342    15.3710    12.6996 H            1 FAD2001   0.0000
    83 H5'1        15.0190    15.8882    15.8927 H            1 FAD2001   0.0000
    84 H5'2        14.2520    15.6844    14.4655 H            1 FAD2001   0.0000
@<TRIPOS>BOND
     1    1    2      ar
     2    1    3      ar
     3    1    4       1
     4    1   53       1
     5    4    5       1
     6    5    6       1
     7    6    7       1
     8    6    8       1
     9    7   12       1
    10    8    9       1
    11    8   10       1
    12   10   11       1
    13   10   12       1
    14   12   13       1
    15   13   14       1
    16   13   22       1
    17   14   15       2
    18   15   16       1
    19   16   17      ar
    20   16   22      ar
    21   17   18       1
    22   17   19      ar
    23   19   20      ar
    24   20   21      ar
    25   21   22      ar
    26   23   24       1
    27   23   40       2
    28   24   25       2
    29   24   26       1
    30   26   27       1
    31   27   28       2
    32   27   29       1
    33   29   30       2
    34   29   40       1
    35   30   31       1
    36   31   32      ar
    37   31   38      ar
    38   32   33      ar
    39   33   34       1
    40   33   35      ar
    41   35   36       1
    42   35   37      ar
    43   37   38      ar
    44   38   39       1
    45   39   40       1
    46   39   41       1
    47   41   42       1
    48   42   43       1
    49   42   44       1
    50   44   45       1
    51   44   46       1
    52   46   47       1
    53   46   48       1
    54   48   49       1
    55   49   50       1
    56   50   51      ar
    57   50   52      ar
    58   50   53       1
    59   48   84       1
    60    5   54       1
    61    5   55       1
    62    6   56       1
    63    8   57       1
    64    9   58       1
    65   10   59       1
    66   11   60       1
    67   12   61       1
    68   14   62       1
    69   18   63       1
    70   18   64       1
    71   20   65       1
    72   26   66       1
    73   32   67       1
    74   34   68       1
    75   34   69       1
    76   34   70       1
    77   36   71       1
    78   36   72       1
    79   36   73       1
    80   37   74       1
    81   41   75       1
    82   41   76       1
    83   42   77       1
    84   43   78       1
    85   44   79       1
    86   45   80       1
    87   46   81       1
    88   47   82       1
    89   48   83       1
@<TRIPOS>SUBSTRUCTURE
     1 FAD2001     1 GROUP             4 A     FAD     0 **** FAD A2001
