@<TRIPOS>MOLECULE
3apw_DP0_2_ligand
   55    56     1     0     0
SMALL
NO_CHARGES


@<TRIPOS>ATOM
     1 C1          13.2510     0.8280    42.4560 C.3          1 DP0190   0.0000
     2 O1          13.2740     1.8390    44.6500 O.2          1 DP0190   0.0000
     3 C2          13.8650     1.8890    41.5470 C.3          1 DP0190   0.0000
     4 N2          13.9860     4.2430    41.0330 N.4          1 DP0190   1.0000
     5 C3          13.7230     3.2950    42.1190 C.3          1 DP0190   0.0000
     6 N3          11.1710     1.3510    41.1960 N.ar         1 DP0190   0.0000
     7 C4          12.6870     4.8270    40.5890 C.3          1 DP0190   0.0000
     8 N4          14.9500     0.4620    44.1710 N.am         1 DP0190   0.0000
     9 C5          15.1140     5.1470    41.3650 C.3          1 DP0190   0.0000
    10 C6          13.6660    -0.5290    41.9430 C.ar         1 DP0190   0.0000
    11 C7          11.7360     0.9350    42.3610 C.ar         1 DP0190   0.0000
    12 C8          13.8130     1.0780    43.8570 C.2          1 DP0190   0.0000
    13 C9          12.4130     6.2730    41.0150 C.3          1 DP0190   0.0000
    14 C10         12.5710     4.6040    39.0790 C.3          1 DP0190   0.0000
    15 C11         16.4270     4.3610    41.2410 C.3          1 DP0190   0.0000
    16 C12         14.9630     5.7800    42.7540 C.3          1 DP0190   0.0000
    17 C13         14.6950    -0.6470    41.0060 C.ar         1 DP0190   0.0000
    18 C14         13.0440    -1.6910    42.3980 C.ar         1 DP0190   0.0000
    19 C15         10.8980     0.6020    43.4330 C.ar         1 DP0190   0.0000
    20 C16         15.0950    -1.8990    40.5280 C.ar         1 DP0190   0.0000
    21 C17         13.4430    -2.9480    41.9230 C.ar         1 DP0190   0.0000
    22 C18          9.5220     0.7110    43.2900 C.ar         1 DP0190   0.0000
    23 C19         14.4710    -3.0530    40.9870 C.ar         1 DP0190   0.0000
    24 C20          9.8410     1.4670    41.0400 C.ar         1 DP0190   0.0000
    25 C21          8.9860     1.1420    42.0850 C.ar         1 DP0190   0.0000
    26 H1          13.4067     1.8556    40.6588 H            1 DP0190   0.0000
    27 H2          14.8372     1.6870    41.4283 H            1 DP0190   0.0000
    28 H3          14.3831     3.4310    42.8578 H            1 DP0190   0.0000
    29 H4          12.7965     3.4281    42.4711 H            1 DP0190   0.0000
    30 H5          11.9710     4.2703    41.0103 H            1 DP0190   0.0000
    31 H6          15.3570     0.5938    45.0749 H            1 DP0190   0.0000
    32 H7          15.3975    -0.1327    43.5031 H            1 DP0190   0.0000
    33 H8          15.1294     5.8838    40.6891 H            1 DP0190   0.0000
    34 H9          11.5212     6.5602    40.6655 H            1 DP0190   0.0000
    35 H10         12.4147     6.3324    42.0132 H            1 DP0190   0.0000
    36 H11         13.1243     6.8702    40.6443 H            1 DP0190   0.0000
    37 H12         11.7071     4.9863    38.7510 H            1 DP0190   0.0000
    38 H13         13.3330     5.0565    38.6157 H            1 DP0190   0.0000
    39 H14         12.5971     3.6236    38.8839 H            1 DP0190   0.0000
    40 H15         17.1964     4.9601    41.4626 H            1 DP0190   0.0000
    41 H16         16.4136     3.5875    41.8747 H            1 DP0190   0.0000
    42 H17         16.5263     4.0234    40.3050 H            1 DP0190   0.0000
    43 H18         15.7432     6.3791    42.9339 H            1 DP0190   0.0000
    44 H19         14.1181     6.3140    42.7869 H            1 DP0190   0.0000
    45 H20         14.9292     5.0596    43.4467 H            1 DP0190   0.0000
    46 H21         15.1530     0.1767    40.6716 H            1 DP0190   0.0000
    47 H22         12.3060    -1.6270    43.0698 H            1 DP0190   0.0000
    48 H23         11.2896     0.2871    44.2976 H            1 DP0190   0.0000
    49 H24         15.8314    -1.9640    39.8546 H            1 DP0190   0.0000
    50 H25         12.9881    -3.7735    42.2571 H            1 DP0190   0.0000
    51 H26          8.9186     0.4796    44.0531 H            1 DP0190   0.0000
    52 H27         14.7566    -3.9499    40.6492 H            1 DP0190   0.0000
    53 H28          9.4665     1.7879    40.1700 H            1 DP0190   0.0000
    54 H29          7.9955     1.2177    41.9703 H            1 DP0190   0.0000
    55 H30         14.3057     3.6877    40.2652 H            1 DP0190   0.0000
@<TRIPOS>BOND
     1    1    3       1
     2    1   10       1
     3    1   11       1
     4    1   12       1
     5    2   12       2
     6    3    5       1
     7    4    5       1
     8    4    7       1
     9    4    9       1
    10    6   11      ar
    11    6   24      ar
    12    7   13       1
    13    7   14       1
    14    8   12      am
    15    9   15       1
    16    9   16       1
    17   10   17      ar
    18   10   18      ar
    19   11   19      ar
    20   17   20      ar
    21   18   21      ar
    22   19   22      ar
    23   20   23      ar
    24   21   23      ar
    25   22   25      ar
    26   24   25      ar
    27    3   26       1
    28    3   27       1
    29    5   28       1
    30    5   29       1
    31    7   30       1
    32    8   31       1
    33    8   32       1
    34    9   33       1
    35   13   34       1
    36   13   35       1
    37   13   36       1
    38   14   37       1
    39   14   38       1
    40   14   39       1
    41   15   40       1
    42   15   41       1
    43   15   42       1
    44   16   43       1
    45   16   44       1
    46   16   45       1
    47   17   46       1
    48   18   47       1
    49   19   48       1
    50   20   49       1
    51   21   50       1
    52   22   51       1
    53   23   52       1
    54   24   53       1
    55   25   54       1
    56    4   55       1
@<TRIPOS>SUBSTRUCTURE
     1 DP0190      1 GROUP             4 B     DP0     0 **** DP0 B 190
