@<TRIPOS>MOLECULE
1ma0_NAD_1_ligand
   70    74     1     0     0
SMALL
NO_CHARGES


@<TRIPOS>ATOM
     1 PA          58.8850     9.0830     1.8470 P.3          1 NAD5377   0.0000
     2 O1A         57.6780     8.2510     1.6540 O.co2        1 NAD5377   0.0000
     3 O2A         59.9500     8.6660     0.9060 O.co2        1 NAD5377  -1.0000
     4 O5B         59.4200     8.9330     3.3120 O.3          1 NAD5377   0.0000
     5 C5B         58.4570     8.5530     4.3430 C.3          1 NAD5377   0.0000
     6 C4B         59.1450     7.5290     5.2400 C.3          1 NAD5377   0.0000
     7 O4B         58.4290     7.4520     6.4740 O.3          1 NAD5377   0.0000
     8 C3B         59.1550     6.1360     4.5780 C.3          1 NAD5377   0.0000
     9 O3B         60.4010     5.4910     4.8700 O.3          1 NAD5377   0.0000
    10 C2B         58.0230     5.5110     5.4370 C.3          1 NAD5377   0.0000
    11 O2B         58.1690     4.0840     5.4880 O.3          1 NAD5377   0.0000
    12 C1B         58.3090     6.0980     6.8240 C.3          1 NAD5377   0.0000
    13 N9A         57.1750     5.9680     7.7070 N.pl3        1 NAD5377   0.0000
    14 C8A         55.8250     5.8120     7.4030 C.2          1 NAD5377   0.0000
    15 N7A         55.0240     5.6770     8.5370 N.2          1 NAD5377   0.0000
    16 C5A         55.9430     5.7580     9.5550 C.ar         1 NAD5377   0.0000
    17 C6A         55.7280     5.6150    10.9050 C.ar         1 NAD5377   0.0000
    18 N6A         54.4990     5.3970    11.4190 N.pl3        1 NAD5377   0.0000
    19 N1A         56.8410     5.6610    11.7420 N.ar         1 NAD5377   0.0000
    20 C2A         58.1220     5.8450    11.2180 C.ar         1 NAD5377   0.0000
    21 N3A         58.3400     5.9870     9.8490 N.ar         1 NAD5377   0.0000
    22 C4A         57.2010     5.9320     9.0740 C.ar         1 NAD5377   0.0000
    23 O3          58.5290    10.6250     1.6310 O.3          1 NAD5377   0.0000
    24 PN          59.5730    11.8390     1.5700 P.3          1 NAD5377   0.0000
    25 O1N         59.9650    12.1590     0.1740 O.co2        1 NAD5377   0.0000
    26 O2N         60.7760    11.5800     2.4080 O.co2        1 NAD5377  -1.0000
    27 O5D         58.7540    13.0740     2.2310 O.3          1 NAD5377   0.0000
    28 C5D         58.2670    12.9100     3.5980 C.3          1 NAD5377   0.0000
    29 C4D         57.3140    14.0010     4.0960 C.3          1 NAD5377   0.0000
    30 O4D         57.8900    15.3030     3.8820 O.3          1 NAD5377   0.0000
    31 C3D         56.0000    13.9920     3.2920 C.3          1 NAD5377   0.0000
    32 O3D         54.9380    14.4480     4.1340 O.3          1 NAD5377   0.0000
    33 C2D         56.3550    15.1020     2.2810 C.3          1 NAD5377   0.0000
    34 O2D         55.1520    15.6210     1.7020 O.3          1 NAD5377   0.0000
    35 C1D         56.9430    16.1420     3.2490 C.3          1 NAD5377   0.0000
    36 N1N         57.6660    17.2760     2.6280 N.ar         1 NAD5377   1.0000
    37 C2N         57.5960    18.4650     3.2310 C.ar         1 NAD5377   0.0000
    38 C3N         58.3000    19.5040     2.7610 C.ar         1 NAD5377   0.0000
    39 C7N         58.2210    20.7010     3.3850 C.2          1 NAD5377   0.0000
    40 O7N         58.5360    21.7720     2.8190 O.2          1 NAD5377   0.0000
    41 N7N         57.8020    20.7740     4.6480 N.am         1 NAD5377   0.0000
    42 C4N         59.0830    19.3550     1.6720 C.ar         1 NAD5377   0.0000
    43 C5N         59.1810    18.1830     1.0370 C.ar         1 NAD5377   0.0000
    44 C6N         58.4380    17.1230     1.5480 C.ar         1 NAD5377   0.0000
    45 H5B1        57.6444     8.1499     3.9221 H            1 NAD5377   0.0000
    46 H5B2        58.1921     9.3553     4.8780 H            1 NAD5377   0.0000
    47 H4B         60.0850     7.8201     5.4178 H            1 NAD5377   0.0000
    48 H3B         58.9421     6.1610     3.6012 H            1 NAD5377   0.0000
    49 H5          60.7409     5.8079     5.7555 H            1 NAD5377   0.0000
    50 H2B         57.1184     5.7770     5.1039 H            1 NAD5377   0.0000
    51 H7          58.7413     3.8352     6.2694 H            1 NAD5377   0.0000
    52 H1B         59.1486     5.7329     7.2262 H            1 NAD5377   0.0000
    53 H8A         55.4672     5.7982     6.4693 H            1 NAD5377   0.0000
    54 H6A1        54.3806     5.2979    12.4070 H            1 NAD5377   0.0000
    55 H6A2        53.7069     5.3346    10.8118 H            1 NAD5377   0.0000
    56 H2A         58.9034     5.8757    11.8413 H            1 NAD5377   0.0000
    57 H5D1        59.0599    12.8925     4.2071 H            1 NAD5377   0.0000
    58 H5D2        57.7868    12.0344     3.6506 H            1 NAD5377   0.0000
    59 H4D         57.1208    13.8683     5.0681 H            1 NAD5377   0.0000
    60 H3D         55.8090    13.1111     2.8590 H            1 NAD5377   0.0000
    61 H17         54.0804    14.4454     3.6198 H            1 NAD5377   0.0000
    62 H2D         57.0147    14.7998     1.5929 H            1 NAD5377   0.0000
    63 H19         54.8187    16.3849     2.2546 H            1 NAD5377   0.0000
    64 H1D         56.2533    16.4638     3.8977 H            1 NAD5377   0.0000
    65 H2N         57.0156    18.5809     4.0371 H            1 NAD5377   0.0000
    66 H7N1        57.7452    21.6614     5.1054 H            1 NAD5377   0.0000
    67 H7N2        57.5444    19.9414     5.1383 H            1 NAD5377   0.0000
    68 H4N         59.6018    20.1395     1.3323 H            1 NAD5377   0.0000
    69 H5N         59.7622    18.0727     0.2308 H            1 NAD5377   0.0000
    70 H6N         58.4826    16.2307     1.0989 H            1 NAD5377   0.0000
@<TRIPOS>BOND
     1    1    2      ar
     2    1    3      ar
     3    1    4       1
     4    1   23       1
     5    4    5       1
     6    5    6       1
     7    6    7       1
     8    6    8       1
     9    7   12       1
    10    8    9       1
    11    8   10       1
    12   10   11       1
    13   10   12       1
    14   12   13       1
    15   13   14       1
    16   13   22       1
    17   14   15       2
    18   15   16       1
    19   16   17      ar
    20   16   22      ar
    21   17   18       1
    22   17   19      ar
    23   19   20      ar
    24   20   21      ar
    25   21   22      ar
    26   23   24       1
    27   24   25      ar
    28   24   26      ar
    29   24   27       1
    30   27   28       1
    31   28   29       1
    32   29   30       1
    33   29   31       1
    34   30   35       1
    35   31   32       1
    36   31   33       1
    37   33   34       1
    38   33   35       1
    39   35   36       1
    40   36   37      ar
    41   36   44      ar
    42   37   38      ar
    43   38   39       1
    44   38   42      ar
    45   39   40       2
    46   39   41      am
    47   42   43      ar
    48   43   44      ar
    49   44   70       1
    50    5   45       1
    51    5   46       1
    52    6   47       1
    53    8   48       1
    54    9   49       1
    55   10   50       1
    56   11   51       1
    57   12   52       1
    58   14   53       1
    59   18   54       1
    60   18   55       1
    61   20   56       1
    62   43   69       1
    63   28   57       1
    64   28   58       1
    65   29   59       1
    66   31   60       1
    67   32   61       1
    68   33   62       1
    69   34   63       1
    70   35   64       1
    71   37   65       1
    72   41   66       1
    73   41   67       1
    74   42   68       1
@<TRIPOS>SUBSTRUCTURE
     1 NAD5377     1 GROUP             4 A     NAD     0 **** NAD A5377
