@<TRIPOS>MOLECULE
1fkl_RAP_1_ligand
  144   147     1     0     0
SMALL
NO_CHARGES


@<TRIPOS>ATOM
     1 C1         -18.1700    -8.4900   -12.9290 C.2          1 RAP108   0.0000
     2 O1         -18.6280    -9.5340   -13.7620 O.3          1 RAP108   0.0000
     3 O2         -17.4180    -8.6870   -12.0230 O.2          1 RAP108   0.0000
     4 C2         -18.7340    -7.0900   -13.2370 C.3          1 RAP108   0.0000
     5 C3         -19.1880    -6.4310   -11.9080 C.3          1 RAP108   0.0000
     6 C4         -20.5850    -6.9650   -11.4420 C.3          1 RAP108   0.0000
     7 C5         -21.6150    -6.7670   -12.5910 C.3          1 RAP108   0.0000
     8 C6         -21.1690    -7.5650   -13.8190 C.3          1 RAP108   0.0000
     9 N7         -19.8340    -7.0740   -14.2680 N.am         1 RAP108   0.0000
    10 C8         -19.5340    -6.6230   -15.5260 C.2          1 RAP108   0.0000
    11 O3         -18.3700    -6.2820   -15.8110 O.2          1 RAP108   0.0000
    12 C9         -20.5170    -6.4230   -16.5440 C.2          1 RAP108   0.0000
    13 O4         -21.1600    -5.3710   -16.6420 O.2          1 RAP108   0.0000
    14 C10        -20.8610    -7.5910   -17.5280 C.3          1 RAP108   0.0000
    15 O5         -21.6710    -8.4930   -16.7530 O.3          1 RAP108   0.0000
    16 O6         -21.7130    -7.0990   -18.5610 O.3          1 RAP108   0.0000
    17 C11        -19.5720    -8.2900   -18.1540 C.3          1 RAP108   0.0000
    18 C12        -19.9900    -9.6360   -18.8240 C.3          1 RAP108   0.0000
    19 C13        -20.8330   -10.4800   -17.8240 C.3          1 RAP108   0.0000
    20 C14        -22.0980    -9.7380   -17.3210 C.3          1 RAP108   0.0000
    21 C15        -22.8780   -10.4260   -16.1630 C.3          1 RAP108   0.0000
    22 C16        -23.6370   -11.7010   -16.6130 C.3          1 RAP108   0.0000
    23 O7         -24.7050   -11.2990   -17.5140 O.3          1 RAP108   0.0000
    24 C17        -24.2030   -12.3740   -15.3430 C.2          1 RAP108   0.0000
    25 C18        -23.6310   -13.5440   -14.9330 C.2          1 RAP108   0.0000
    26 C19        -24.1600   -14.5460   -13.9750 C.2          1 RAP108   0.0000
    27 C20        -23.5590   -15.7230   -13.7290 C.2          1 RAP108   0.0000
    28 C21        -23.7340   -16.4670   -12.4720 C.2          1 RAP108   0.0000
    29 C22        -23.2140   -17.7010   -12.2790 C.2          1 RAP108   0.0000
    30 C23        -23.3880   -18.4910   -10.9700 C.3          1 RAP108   0.0000
    31 C24        -21.9730   -18.5180   -10.2930 C.3          1 RAP108   0.0000
    32 C25        -21.2650   -17.1310   -10.0070 C.3          1 RAP108   0.0000
    33 C26        -19.7530   -17.4030    -9.8800 C.2          1 RAP108   0.0000
    34 O8         -19.3140   -17.8340    -8.8290 O.2          1 RAP108   0.0000
    35 C27        -18.8520   -17.3640   -11.1400 C.3          1 RAP108   0.0000
    36 O9         -17.6710   -18.1810   -10.8780 O.3          1 RAP108   0.0000
    37 C28        -18.3610   -15.8930   -11.4410 C.3          1 RAP108   0.0000
    38 O10        -18.0260   -15.2450   -10.2250 O.3          1 RAP108   0.0000
    39 C29        -19.4470   -15.1250   -12.2010 C.2          1 RAP108   0.0000
    40 C30        -20.1350   -14.1000   -11.5810 C.2          1 RAP108   0.0000
    41 C31        -21.1560   -13.1040   -12.2080 C.3          1 RAP108   0.0000
    42 C32        -20.4290   -11.7510   -12.5110 C.2          1 RAP108   0.0000
    43 O11        -20.6530   -10.7370   -11.8740 O.2          1 RAP108   0.0000
    44 C33        -19.5020   -11.7380   -13.7330 C.3          1 RAP108   0.0000
    45 C34        -18.2360   -10.9140   -13.5070 C.3          1 RAP108   0.0000
    46 C35        -17.0460   -11.2430   -14.4990 C.3          1 RAP108   0.0000
    47 C36        -16.2460   -12.5490   -14.1960 C.3          1 RAP108   0.0000
    48 C37        -15.6360   -12.7040   -12.7650 C.3          1 RAP108   0.0000
    49 C38        -14.9480   -14.1010   -12.6180 C.3          1 RAP108   0.0000
    50 C39        -14.4570   -14.3250   -11.1670 C.3          1 RAP108   0.0000
    51 O12        -13.8630   -15.6650   -11.0680 O.3          1 RAP108   0.0000
    52 C40        -13.4320   -13.2090   -10.7490 C.3          1 RAP108   0.0000
    53 O13        -13.0360   -13.3810    -9.3780 O.3          1 RAP108   0.0000
    54 C41        -14.0180   -11.7660   -10.9160 C.3          1 RAP108   0.0000
    55 C42        -14.6960   -11.5130   -12.2840 C.3          1 RAP108   0.0000
    56 C43        -18.7620    -7.3700   -19.1030 C.3          1 RAP108   0.0000
    57 C44        -25.3390   -11.6740   -14.5760 C.3          1 RAP108   0.0000
    58 C45        -23.8910   -19.9370   -11.2760 C.3          1 RAP108   0.0000
    59 C46        -21.8120   -16.2630    -8.8340 C.3          1 RAP108   0.0000
    60 C47        -19.7100   -15.6260   -13.6440 C.3          1 RAP108   0.0000
    61 C48        -22.3220   -12.9470   -11.1640 C.3          1 RAP108   0.0000
    62 C49        -17.3930   -11.1280   -15.9840 C.3          1 RAP108   0.0000
    63 C50        -25.2410   -12.3890   -18.3390 C.3          1 RAP108   0.0000
    64 C51        -17.4200   -19.3340   -11.7080 C.3          1 RAP108   0.0000
    65 C52        -14.4100   -16.5200   -10.0130 C.3          1 RAP108   0.0000
    66 H1         -17.9810    -6.5401   -13.5984 H            1 RAP108   0.0000
    67 H2         -19.2475    -5.4417   -12.0409 H            1 RAP108   0.0000
    68 H3         -18.5117    -6.6320   -11.1993 H            1 RAP108   0.0000
    69 H4         -20.8842    -6.4587   -10.6332 H            1 RAP108   0.0000
    70 H5         -20.5145    -7.9374   -11.2194 H            1 RAP108   0.0000
    71 H6         -21.6699    -5.7965   -12.8260 H            1 RAP108   0.0000
    72 H7         -22.5134    -7.0890   -12.2925 H            1 RAP108   0.0000
    73 H8         -21.8344    -7.4441   -14.5556 H            1 RAP108   0.0000
    74 H9         -21.1060    -8.5346   -13.5825 H            1 RAP108   0.0000
    75 H10        -22.5551    -6.7419   -18.1567 H            1 RAP108   0.0000
    76 H11        -18.9688    -8.5216   -17.3908 H            1 RAP108   0.0000
    77 H12        -19.1704   -10.1474   -19.0822 H            1 RAP108   0.0000
    78 H13        -20.5352    -9.4457   -19.6405 H            1 RAP108   0.0000
    79 H14        -20.2607   -10.7048   -17.0353 H            1 RAP108   0.0000
    80 H15        -21.1183   -11.3230   -18.2800 H            1 RAP108   0.0000
    81 H16        -22.7156    -9.5651   -18.0882 H            1 RAP108   0.0000
    82 H17        -23.5412    -9.7743   -15.7949 H            1 RAP108   0.0000
    83 H18        -22.2270   -10.6792   -15.4474 H            1 RAP108   0.0000
    84 H19        -23.0110   -12.3248   -17.0809 H            1 RAP108   0.0000
    85 H20        -22.7377   -13.7532   -15.3308 H            1 RAP108   0.0000
    86 H21        -25.0071   -14.3349   -13.4873 H            1 RAP108   0.0000
    87 H22        -22.9650   -16.1111   -14.4336 H            1 RAP108   0.0000
    88 H23        -24.2573   -16.0445   -11.7320 H            1 RAP108   0.0000
    89 H24        -22.6919   -18.1195   -13.0221 H            1 RAP108   0.0000
    90 H25        -24.0409   -18.0228   -10.3746 H            1 RAP108   0.0000
    91 H26        -21.3671   -19.0448   -10.8891 H            1 RAP108   0.0000
    92 H27        -22.0706   -18.9894    -9.4165 H            1 RAP108   0.0000
    93 H28        -21.3806   -16.5835   -10.8358 H            1 RAP108   0.0000
    94 H29        -19.3502   -17.7260   -11.9279 H            1 RAP108   0.0000
    95 H30        -17.5427   -15.9402   -12.0139 H            1 RAP108   0.0000
    96 H31        -17.7155   -14.3142   -10.4178 H            1 RAP108   0.0000
    97 H32        -19.9546   -13.9822   -10.6045 H            1 RAP108   0.0000
    98 H33        -21.5177   -13.4869   -13.0581 H            1 RAP108   0.0000
    99 H34        -20.0009   -11.3509   -14.5084 H            1 RAP108   0.0000
   100 H35        -19.2373   -12.6791   -13.9432 H            1 RAP108   0.0000
   101 H36        -17.9288   -11.0125   -12.5605 H            1 RAP108   0.0000
   102 H37        -16.3857   -10.5084   -14.3431 H            1 RAP108   0.0000
   103 H38        -15.4914   -12.5971   -14.8504 H            1 RAP108   0.0000
   104 H39        -16.8647   -13.3207   -14.3434 H            1 RAP108   0.0000
   105 H40        -16.4125   -12.7126   -12.1349 H            1 RAP108   0.0000
   106 H41        -14.1658   -14.1477   -13.2392 H            1 RAP108   0.0000
   107 H42        -15.6053   -14.8163   -12.8553 H            1 RAP108   0.0000
   108 H43        -15.2452   -14.2797   -10.5533 H            1 RAP108   0.0000
   109 H44        -12.6200   -13.2909   -11.3269 H            1 RAP108   0.0000
   110 H45        -13.7851   -13.7997    -8.8647 H            1 RAP108   0.0000
   111 H46        -13.2711   -11.1096   -10.8096 H            1 RAP108   0.0000
   112 H47        -14.6970   -11.6178   -10.1969 H            1 RAP108   0.0000
   113 H48        -15.2497   -10.6833   -12.2128 H            1 RAP108   0.0000
   114 H49        -13.9811   -11.3788   -12.9702 H            1 RAP108   0.0000
   115 H50        -17.9718    -7.8698   -19.4576 H            1 RAP108   0.0000
   116 H51        -19.3431    -7.0818   -19.8641 H            1 RAP108   0.0000
   117 H52        -18.4486    -6.5649   -18.5995 H            1 RAP108   0.0000
   118 H53        -25.5965   -12.2271   -13.7837 H            1 RAP108   0.0000
   119 H54        -25.0285   -10.7747   -14.2680 H            1 RAP108   0.0000
   120 H55        -26.1301   -11.5654   -15.1780 H            1 RAP108   0.0000
   121 H56        -24.0003   -20.4403   -10.4188 H            1 RAP108   0.0000
   122 H57        -24.7704   -19.8907   -11.7498 H            1 RAP108   0.0000
   123 H58        -23.2245   -20.4061   -11.8554 H            1 RAP108   0.0000
   124 H59        -21.2775   -15.4206    -8.7652 H            1 RAP108   0.0000
   125 H60        -22.7707   -16.0364    -9.0059 H            1 RAP108   0.0000
   126 H61        -21.7388   -16.7750    -7.9781 H            1 RAP108   0.0000
   127 H62        -20.4290   -15.0718   -14.0634 H            1 RAP108   0.0000
   128 H63        -18.8711   -15.5466   -14.1825 H            1 RAP108   0.0000
   129 H64        -19.9996   -16.5828   -13.6171 H            1 RAP108   0.0000
   130 H65        -23.0073   -12.3132   -11.5225 H            1 RAP108   0.0000
   131 H66        -22.7453   -13.8381   -11.0005 H            1 RAP108   0.0000
   132 H67        -21.9546   -12.5899   -10.3052 H            1 RAP108   0.0000
   133 H68        -16.5876   -11.3520   -16.5328 H            1 RAP108   0.0000
   134 H69        -18.1332   -11.7635   -16.2035 H            1 RAP108   0.0000
   135 H70        -17.6850   -10.1933   -16.1867 H            1 RAP108   0.0000
   136 H71        -25.9672   -12.0349   -18.9283 H            1 RAP108   0.0000
   137 H72        -24.5093   -12.7702   -18.9041 H            1 RAP108   0.0000
   138 H73        -25.6116   -13.1043   -17.7465 H            1 RAP108   0.0000
   139 H74        -16.5808   -19.7861   -11.4056 H            1 RAP108   0.0000
   140 H75        -18.1871   -19.9713   -11.6341 H            1 RAP108   0.0000
   141 H76        -17.3181   -19.0439   -12.6596 H            1 RAP108   0.0000
   142 H77        -13.9444   -17.4049   -10.0262 H            1 RAP108   0.0000
   143 H78        -14.2707   -16.0833    -9.1243 H            1 RAP108   0.0000
   144 H79        -15.3885   -16.6559   -10.1679 H            1 RAP108   0.0000
@<TRIPOS>BOND
     1    1    2       1
     2    1    3       2
     3    1    4       1
     4    2   45       1
     5    4    5       1
     6    4    9       1
     7    5    6       1
     8    6    7       1
     9    7    8       1
    10    8    9       1
    11    9   10      am
    12   10   11       2
    13   10   12       1
    14   12   13       2
    15   12   14       1
    16   14   15       1
    17   14   16       1
    18   14   17       1
    19   15   20       1
    20   17   18       1
    21   17   56       1
    22   18   19       1
    23   19   20       1
    24   20   21       1
    25   21   22       1
    26   22   23       1
    27   22   24       1
    28   23   63       1
    29   24   25       2
    30   24   57       1
    31   25   26       1
    32   26   27       2
    33   27   28       1
    34   28   29       2
    35   29   30       1
    36   30   31       1
    37   30   58       1
    38   31   32       1
    39   32   33       1
    40   32   59       1
    41   33   34       2
    42   33   35       1
    43   35   36       1
    44   35   37       1
    45   36   64       1
    46   37   38       1
    47   37   39       1
    48   39   40       2
    49   39   60       1
    50   40   41       1
    51   41   42       1
    52   41   61       1
    53   42   43       2
    54   42   44       1
    55   44   45       1
    56   45   46       1
    57   46   47       1
    58   46   62       1
    59   47   48       1
    60   48   49       1
    61   48   55       1
    62   49   50       1
    63   50   51       1
    64   50   52       1
    65   51   65       1
    66   52   53       1
    67   52   54       1
    68   54   55       1
    69    4   66       1
    70    5   67       1
    71    5   68       1
    72    6   69       1
    73    6   70       1
    74    7   71       1
    75    7   72       1
    76    8   73       1
    77    8   74       1
    78   16   75       1
    79   17   76       1
    80   18   77       1
    81   18   78       1
    82   19   79       1
    83   19   80       1
    84   20   81       1
    85   21   82       1
    86   21   83       1
    87   22   84       1
    88   25   85       1
    89   26   86       1
    90   27   87       1
    91   28   88       1
    92   29   89       1
    93   30   90       1
    94   31   91       1
    95   31   92       1
    96   32   93       1
    97   35   94       1
    98   37   95       1
    99   38   96       1
   100   40   97       1
   101   41   98       1
   102   44   99       1
   103   44  100       1
   104   45  101       1
   105   46  102       1
   106   47  103       1
   107   47  104       1
   108   48  105       1
   109   49  106       1
   110   49  107       1
   111   50  108       1
   112   52  109       1
   113   53  110       1
   114   54  111       1
   115   54  112       1
   116   55  113       1
   117   55  114       1
   118   56  115       1
   119   56  116       1
   120   56  117       1
   121   57  118       1
   122   57  119       1
   123   57  120       1
   124   58  121       1
   125   58  122       1
   126   58  123       1
   127   59  124       1
   128   59  125       1
   129   59  126       1
   130   60  127       1
   131   60  128       1
   132   60  129       1
   133   61  130       1
   134   61  131       1
   135   61  132       1
   136   62  133       1
   137   62  134       1
   138   62  135       1
   139   63  136       1
   140   63  137       1
   141   63  138       1
   142   64  139       1
   143   64  140       1
   144   64  141       1
   145   65  142       1
   146   65  143       1
   147   65  144       1
@<TRIPOS>SUBSTRUCTURE
     1 RAP108      1 GROUP             4 A     RAP     0 **** RAP A 108
