@<TRIPOS>MOLECULE
1zz1_SHH_1_ligand
   38    38     1     0     0
SMALL
NO_CHARGES


@<TRIPOS>ATOM
     1 O1          -4.3600   -14.5190    43.9310 O.3          1 SHH2452  -1.0000
     2 O2          -2.3410   -14.5180    42.2580 O.2          1 SHH2452   0.0000
     3 N1          -4.4660   -14.5820    42.5380 N.am         1 SHH2452   0.0000
     4 C1          -3.4500   -14.1660    41.8800 C.2          1 SHH2452   0.0000
     5 C2          -3.7520   -13.3200    40.6460 C.3          1 SHH2452   0.0000
     6 C3          -4.0330   -11.8480    40.9210 C.3          1 SHH2452   0.0000
     7 C4          -4.1800   -10.9850    39.6570 C.3          1 SHH2452   0.0000
     8 C5          -5.1840   -11.4680    38.6000 C.3          1 SHH2452   0.0000
     9 C6          -5.6240   -10.3570    37.6390 C.3          1 SHH2452   0.0000
    10 C7          -6.6640   -10.8180    36.6160 C.3          1 SHH2452   0.0000
    11 C8          -7.2510    -9.5920    35.9400 C.2          1 SHH2452   0.0000
    12 O3          -6.5290    -8.8030    35.3400 O.2          1 SHH2452   0.0000
    13 N2          -8.5720    -9.4340    36.0480 N.am         1 SHH2452   0.0000
    14 C9          -9.2500    -8.3670    35.5510 C.ar         1 SHH2452   0.0000
    15 C10        -10.4390    -8.5970    34.8640 C.ar         1 SHH2452   0.0000
    16 C11        -11.1670    -7.5280    34.3460 C.ar         1 SHH2452   0.0000
    17 C12        -10.7050    -6.2200    34.5160 C.ar         1 SHH2452   0.0000
    18 C13         -9.5140    -5.9780    35.2050 C.ar         1 SHH2452   0.0000
    19 C14         -8.7880    -7.0560    35.7220 C.ar         1 SHH2452   0.0000
    20 H1          -5.2857   -14.9308    42.0836 H            1 SHH2452   0.0000
    21 H2          -4.5545   -13.7087    40.1933 H            1 SHH2452   0.0000
    22 H3          -2.9640   -13.3751    40.0328 H            1 SHH2452   0.0000
    23 H4          -3.2780   -11.4813    41.4645 H            1 SHH2452   0.0000
    24 H5          -4.8826   -11.7838    41.4446 H            1 SHH2452   0.0000
    25 H6          -3.2821   -10.9338    39.2199 H            1 SHH2452   0.0000
    26 H7          -4.4624   -10.0705    39.9466 H            1 SHH2452   0.0000
    27 H8          -5.9931   -11.8233    39.0680 H            1 SHH2452   0.0000
    28 H9          -4.7587   -12.1998    38.0675 H            1 SHH2452   0.0000
    29 H10         -4.8191   -10.0264    37.1463 H            1 SHH2452   0.0000
    30 H11         -6.0163    -9.6100    38.1758 H            1 SHH2452   0.0000
    31 H12         -7.3893   -11.3279    37.0786 H            1 SHH2452   0.0000
    32 H13         -6.2284   -11.4039    35.9327 H            1 SHH2452   0.0000
    33 H14         -9.0933   -10.1430    36.5228 H            1 SHH2452   0.0000
    34 H15        -10.7714    -9.5322    34.7420 H            1 SHH2452   0.0000
    35 H16        -12.0202    -7.6966    33.8525 H            1 SHH2452   0.0000
    36 H17        -11.2290    -5.4543    34.1430 H            1 SHH2452   0.0000
    37 H18         -9.1834    -5.0422    35.3275 H            1 SHH2452   0.0000
    38 H19         -7.9347    -6.8898    36.2162 H            1 SHH2452   0.0000
@<TRIPOS>BOND
     1    1    3       1
     2    2    4       2
     3    3    4      am
     4    4    5       1
     5    5    6       1
     6    6    7       1
     7    7    8       1
     8    8    9       1
     9    9   10       1
    10   10   11       1
    11   11   12       2
    12   11   13      am
    13   13   14       1
    14   14   15      ar
    15   14   19      ar
    16   15   16      ar
    17   16   17      ar
    18   17   18      ar
    19   18   19      ar
    20   19   38       1
    21    3   20       1
    22    5   21       1
    23    5   22       1
    24    6   23       1
    25    6   24       1
    26    7   25       1
    27    7   26       1
    28    8   27       1
    29    8   28       1
    30    9   29       1
    31    9   30       1
    32   10   31       1
    33   10   32       1
    34   13   33       1
    35   15   34       1
    36   16   35       1
    37   17   36       1
    38   18   37       1
@<TRIPOS>SUBSTRUCTURE
     1 SHH2452     1 GROUP             4 A     SHH     0 **** SHH A2452
