@<TRIPOS>MOLECULE
1iah_ADP_2_ligand
   39    41     1     0     0
SMALL
NO_CHARGES


@<TRIPOS>ATOM
     1 PB          55.3840    41.3310    55.5380 P.3          1 ADP2004   0.0000
     2 O1B         55.4980    40.4980    56.8180 O.co2        1 ADP2004   0.0000
     3 O2B         56.7500    41.4260    54.6500 O.co2        1 ADP2004  -1.0000
     4 O3B         54.2590    40.7690    54.6660 O.co2        1 ADP2004  -1.0000
     5 PA          55.7530    44.1930    55.8760 P.3          1 ADP2004   0.0000
     6 O1A         55.4170    44.9930    57.0730 O.co2        1 ADP2004   0.0000
     7 O2A         57.2290    44.0490    55.7830 O.co2        1 ADP2004  -1.0000
     8 O3A         55.0220    42.7920    55.9240 O.3          1 ADP2004   0.0000
     9 O5'         55.2170    44.8600    54.5640 O.3          1 ADP2004   0.0000
    10 C5'         53.8130    45.1550    54.3630 C.3          1 ADP2004   0.0000
    11 C4'         53.6760    45.7710    52.9420 C.3          1 ADP2004   0.0000
    12 O4'         53.2040    47.1320    53.0790 O.3          1 ADP2004   0.0000
    13 C3'         55.0020    45.8790    52.1680 C.3          1 ADP2004   0.0000
    14 O3'         55.2000    44.8240    51.2360 O.3          1 ADP2004   0.0000
    15 C2'         54.9410    47.2260    51.4690 C.3          1 ADP2004   0.0000
    16 O2'         54.4090    47.1770    50.1410 O.3          1 ADP2004   0.0000
    17 C1'         54.1090    48.0550    52.4390 C.3          1 ADP2004   0.0000
    18 N9          54.9620    48.8120    53.4490 N.pl3        1 ADP2004   0.0000
    19 C8          55.4610    48.3340    54.6130 C.2          1 ADP2004   0.0000
    20 N7          56.1450    49.2800    55.2310 N.2          1 ADP2004   0.0000
    21 C5          56.1070    50.3620    54.5010 C.ar         1 ADP2004   0.0000
    22 C6          56.6140    51.6640    54.6090 C.ar         1 ADP2004   0.0000
    23 N6          57.3520    52.0150    55.6840 N.pl3        1 ADP2004   0.0000
    24 N1          56.3660    52.5960    53.6160 N.ar         1 ADP2004   0.0000
    25 C2          55.6260    52.2830    52.5170 C.ar         1 ADP2004   0.0000
    26 N3          55.1350    51.0290    52.4120 N.ar         1 ADP2004   0.0000
    27 C4          55.3350    50.0660    53.3510 C.ar         1 ADP2004   0.0000
    28 H5'1        53.4972    45.8075    55.0519 H            1 ADP2004   0.0000
    29 H5'2        53.2733    44.3156    54.4268 H            1 ADP2004   0.0000
    30 H4'         53.0181    45.2399    52.4081 H            1 ADP2004   0.0000
    31 H3'         55.7602    45.8843    52.8199 H            1 ADP2004   0.0000
    32 H5          55.7484    45.1558    50.4684 H            1 ADP2004   0.0000
    33 H2'         55.8640    47.6089    51.4304 H            1 ADP2004   0.0000
    34 H7          54.4018    48.0976    49.7506 H            1 ADP2004   0.0000
    35 H1'         53.5725    48.7164    51.9149 H            1 ADP2004   0.0000
    36 H9          55.3311    47.4031    54.9543 H            1 ADP2004   0.0000
    37 H10         57.7135    52.9442    55.7605 H            1 ADP2004   0.0000
    38 H11         57.5370    51.3457    56.4036 H            1 ADP2004   0.0000
    39 H12         55.4505    52.9638    51.8059 H            1 ADP2004   0.0000
@<TRIPOS>BOND
     1    1    2      ar
     2    1    3      ar
     3    1    4      ar
     4    1    8       1
     5    5    6      ar
     6    5    7      ar
     7    5    8       1
     8    5    9       1
     9    9   10       1
    10   10   11       1
    11   11   12       1
    12   11   13       1
    13   12   17       1
    14   13   14       1
    15   13   15       1
    16   15   16       1
    17   15   17       1
    18   17   18       1
    19   18   19       1
    20   18   27       1
    21   19   20       2
    22   20   21       1
    23   21   22      ar
    24   21   27      ar
    25   22   23       1
    26   22   24      ar
    27   24   25      ar
    28   25   26      ar
    29   26   27      ar
    30   25   39       1
    31   23   38       1
    32   23   37       1
    33   10   28       1
    34   10   29       1
    35   11   30       1
    36   13   31       1
    37   14   32       1
    38   15   33       1
    39   16   34       1
    40   17   35       1
    41   19   36       1
@<TRIPOS>SUBSTRUCTURE
     1 ADP2004     1 GROUP             4 B     ADP     0 **** ADP B2004
