@<TRIPOS>MOLECULE
3rku_NAP_2_ligand
   73    77     1     0     0
SMALL
NO_CHARGES


@<TRIPOS>ATOM
     1 PA          17.9220    34.1490    -4.9940 P.3          1 NAP268   0.0000
     2 O1A         16.8860    33.3580    -5.7120 O.co2        1 NAP268   0.0000
     3 O2A         19.2180    33.4600    -4.8170 O.co2        1 NAP268  -1.0000
     4 O5B         18.3340    35.4840    -5.7810 O.3          1 NAP268   0.0000
     5 C5B         19.1490    36.4670    -5.1680 C.3          1 NAP268   0.0000
     6 C4B         19.5640    37.4670    -6.2650 C.3          1 NAP268   0.0000
     7 O4B         20.6000    38.3610    -5.8910 O.3          1 NAP268   0.0000
     8 C3B         20.0470    36.7810    -7.5300 C.3          1 NAP268   0.0000
     9 O3B         19.3720    37.4400    -8.5770 O.3          1 NAP268   0.0000
    10 C2B         21.5300    37.0730    -7.6220 C.3          1 NAP268   0.0000
    11 O2B         21.8880    37.2610    -8.9630 O.3          1 NAP268   0.0000
    12 C1B         21.6070    38.4010    -6.8960 C.3          1 NAP268   0.0000
    13 N9A         22.9480    38.6060    -6.3140 N.pl3        1 NAP268   0.0000
    14 C8A         23.5320    37.7950    -5.3800 C.2          1 NAP268   0.0000
    15 N7A         24.7410    38.3010    -5.0540 N.2          1 NAP268   0.0000
    16 C5A         24.9490    39.4350    -5.7620 C.ar         1 NAP268   0.0000
    17 C6A         26.0370    40.3160    -5.8140 C.ar         1 NAP268   0.0000
    18 N6A         27.1150    40.0960    -5.0470 N.pl3        1 NAP268   0.0000
    19 N1A         25.9740    41.4220    -6.6580 N.ar         1 NAP268   0.0000
    20 C2A         24.8370    41.6110    -7.4170 C.ar         1 NAP268   0.0000
    21 N3A         23.7610    40.7270    -7.3650 N.ar         1 NAP268   0.0000
    22 C4A         23.8170    39.6470    -6.5520 C.ar         1 NAP268   0.0000
    23 O3          17.3360    34.6880    -3.5920 O.3          1 NAP268   0.0000
    24 PN          15.8690    35.2100    -3.1910 P.3          1 NAP268   0.0000
    25 O1N         15.2800    35.8360    -4.3950 O.co2        1 NAP268   0.0000
    26 O2N         15.1030    34.1150    -2.5660 O.co2        1 NAP268  -1.0000
    27 O5D         16.2010    36.3520    -2.0860 O.3          1 NAP268   0.0000
    28 C5D         16.3600    37.7420    -2.3650 C.3          1 NAP268   0.0000
    29 C4D         16.3440    38.5930    -1.0810 C.3          1 NAP268   0.0000
    30 O4D         15.3260    38.1210    -0.2260 O.3          1 NAP268   0.0000
    31 C3D         17.6250    38.4310    -0.2690 C.3          1 NAP268   0.0000
    32 O3D         17.8970    39.5960     0.4930 O.3          1 NAP268   0.0000
    33 C2D         17.3160    37.2780     0.6480 C.3          1 NAP268   0.0000
    34 O2D         18.1120    37.3480     1.8040 O.3          1 NAP268   0.0000
    35 C1D         15.8850    37.6240     0.9670 C.3          1 NAP268   0.0000
    36 N1N         15.1130    36.5320     1.5870 N.ar         1 NAP268   1.0000
    37 C2N         14.9880    35.3050     1.0190 C.ar         1 NAP268   0.0000
    38 C3N         14.2270    34.3290     1.6890 C.ar         1 NAP268   0.0000
    39 C7N         13.8240    33.0790     0.9590 C.2          1 NAP268   0.0000
    40 O7N         13.2990    32.0060     1.7210 O.2          1 NAP268   0.0000
    41 N7N         13.9900    33.0350    -0.3720 N.am         1 NAP268   0.0000
    42 C4N         13.6120    34.6010     2.9150 C.ar         1 NAP268   0.0000
    43 C5N         13.7440    35.8550     3.4740 C.ar         1 NAP268   0.0000
    44 C6N         14.5020    36.8000     2.7930 C.ar         1 NAP268   0.0000
    45 P2B         23.3220    36.8450    -9.5600 P.3          1 NAP268   0.0000
    46 O1X         23.1950    36.6650   -11.0630 O.co2        1 NAP268   0.0000
    47 O2X         24.2670    37.9850    -9.2310 O.co2        1 NAP268  -1.0000
    48 O3X         23.8850    35.5890    -8.9550 O.co2        1 NAP268  -1.0000
    49 H5B1        19.9606    36.0392    -4.7701 H            1 NAP268   0.0000
    50 H5B2        18.6356    36.9388    -4.4512 H            1 NAP268   0.0000
    51 H4B         18.7599    38.0126    -6.5012 H            1 NAP268   0.0000
    52 H3B         19.8575    35.7992    -7.5204 H            1 NAP268   0.0000
    53 H5          19.9381    37.4232    -9.4012 H            1 NAP268   0.0000
    54 H2B         22.0825    36.3672    -7.1786 H            1 NAP268   0.0000
    55 H1B         21.4067    39.1418    -7.5372 H            1 NAP268   0.0000
    56 H8A         23.1290    36.9623    -5.0001 H            1 NAP268   0.0000
    57 H6A1        27.8917    40.7248    -5.0840 H            1 NAP268   0.0000
    58 H6A2        27.1421    39.3032    -4.4381 H            1 NAP268   0.0000
    59 H2A         24.7837    42.4055    -8.0219 H            1 NAP268   0.0000
    60 H5D1        15.6128    38.0397    -2.9591 H            1 NAP268   0.0000
    61 H5D2        17.2330    37.8797    -2.8329 H            1 NAP268   0.0000
    62 H4D         16.1926    39.5561    -1.3037 H            1 NAP268   0.0000
    63 H3D         18.3965    38.2110    -0.8660 H            1 NAP268   0.0000
    64 H16         17.0366    40.0450     0.7342 H            1 NAP268   0.0000
    65 H2D         17.3975    36.3950     0.1858 H            1 NAP268   0.0000
    66 H18         19.0776    37.3109     1.5466 H            1 NAP268   0.0000
    67 H1D         15.9035    38.3801     1.6212 H            1 NAP268   0.0000
    68 H2N         15.4268    35.0995     0.1442 H            1 NAP268   0.0000
    69 H7N1        13.7298    32.2148    -0.8815 H            1 NAP268   0.0000
    70 H7N2        14.3739    33.8224    -0.8543 H            1 NAP268   0.0000
    71 H4N         13.0817    33.8933     3.3819 H            1 NAP268   0.0000
    72 H5N         13.3064    36.0780     4.3451 H            1 NAP268   0.0000
    73 H6N         14.6083    37.7100     3.1937 H            1 NAP268   0.0000
@<TRIPOS>BOND
     1    1    2      ar
     2    1    3      ar
     3    1    4       1
     4    1   23       1
     5    4    5       1
     6    5    6       1
     7    6    7       1
     8    6    8       1
     9    7   12       1
    10    8    9       1
    11    8   10       1
    12   10   11       1
    13   10   12       1
    14   11   45       1
    15   12   13       1
    16   13   14       1
    17   13   22       1
    18   14   15       2
    19   15   16       1
    20   16   17      ar
    21   16   22      ar
    22   17   18       1
    23   17   19      ar
    24   19   20      ar
    25   20   21      ar
    26   21   22      ar
    27   23   24       1
    28   24   25      ar
    29   24   26      ar
    30   24   27       1
    31   27   28       1
    32   28   29       1
    33   29   30       1
    34   29   31       1
    35   30   35       1
    36   31   32       1
    37   31   33       1
    38   33   34       1
    39   33   35       1
    40   35   36       1
    41   36   37      ar
    42   36   44      ar
    43   37   38      ar
    44   38   39       1
    45   38   42      ar
    46   39   40       2
    47   39   41      am
    48   42   43      ar
    49   43   44      ar
    50   45   46      ar
    51   45   47      ar
    52   45   48      ar
    53   43   72       1
    54    5   49       1
    55    5   50       1
    56    6   51       1
    57    8   52       1
    58    9   53       1
    59   10   54       1
    60   12   55       1
    61   14   56       1
    62   18   57       1
    63   18   58       1
    64   20   59       1
    65   44   73       1
    66   28   60       1
    67   28   61       1
    68   29   62       1
    69   31   63       1
    70   32   64       1
    71   33   65       1
    72   34   66       1
    73   35   67       1
    74   37   68       1
    75   41   69       1
    76   41   70       1
    77   42   71       1
@<TRIPOS>SUBSTRUCTURE
     1 NAP268      1 GROUP             4 B     NAP     0 **** NAP B 268
