@<TRIPOS>MOLECULE
4lpb_1YP_1_ligand
   47    50     1     0     0
SMALL
NO_CHARGES


@<TRIPOS>ATOM
     1 C1          19.6010    34.0510     1.5870 C.3          1 1YP301   0.0000
     2 C2          19.2610    32.6090     1.8730 C.3          1 1YP301   0.0000
     3 C3          17.6430    31.6090     3.4390 C.2          1 1YP301   0.0000
     4 N6          10.0690    30.7420    11.8670 N.2          1 1YP301   0.0000
     5 C7          14.1030    29.7140     6.6280 C.ar         1 1YP301   0.0000
     6 C8          13.7880    30.9600     6.1390 C.ar         1 1YP301   0.0000
     7 C9          13.1270    29.0650     7.4790 C.ar         1 1YP301   0.0000
     8 C10         12.5200    29.6980     8.5450 C.ar         1 1YP301   0.0000
     9 C11         11.5660    28.9910     9.2460 C.ar         1 1YP301   0.0000
    10 C12         11.2460    27.7040     8.8890 C.ar         1 1YP301   0.0000
    11 C13         12.7150    27.7780     7.1950 C.ar         1 1YP301   0.0000
    12 C14         10.8500    29.5990    10.3640 C.2          1 1YP301   0.0000
    13 C15          9.3230    29.5900    11.8150 C.2          1 1YP301   0.0000
    14 C16         15.7550    27.8670     6.6700 C.2          1 1YP301   0.0000
    15 C19         15.8150    25.3410     9.2040 C.3          1 1YP301   0.0000
    16 N1          17.9480    32.5250     2.4600 N.am         1 1YP301   0.0000
    17 O1          18.3630    30.6740     3.7560 O.2          1 1YP301   0.0000
    18 N2          16.4210    31.9120     3.9980 N.am         1 1YP301   0.0000
    19 C4          15.6670    31.1290     4.8940 C.ar         1 1YP301   0.0000
    20 C5          16.0860    29.8860     5.3250 C.ar         1 1YP301   0.0000
    21 C6          15.3040    29.1650     6.2090 C.ar         1 1YP301   0.0000
    22 N3          14.5270    31.6860     5.3010 N.ar         1 1YP301   0.0000
    23 N4          11.8070    27.0620     7.8650 N.ar         1 1YP301   0.0000
    24 N5          11.0390    30.7380    10.9290 N.2          1 1YP301   0.0000
    25 O2           8.3720    29.2820    12.5180 O.3          1 1YP301   0.0000
    26 O3           9.8370    28.8250    10.8210 O.2          1 1YP301   0.0000
    27 N7          15.4730    27.3370     7.8410 N.2          1 1YP301   0.0000
    28 C17         16.0380    26.0940     7.9640 C.2          1 1YP301   0.0000
    29 C18         16.7600    25.6760     6.8710 C.2          1 1YP301   0.0000
    30 S1          16.7330    26.8850     5.6560 S.3          1 1YP301   0.0000
    31 F1          16.4440    24.1360     9.1800 F            1 1YP301   0.0000
    32 F2          16.2360    26.0140    10.3050 F            1 1YP301   0.0000
    33 F3          14.4910    25.0940     9.3810 F            1 1YP301   0.0000
    34 H1          20.5128    34.1041     1.1799 H            1 1YP301   0.0000
    35 H2          18.9295    34.4321     0.9515 H            1 1YP301   0.0000
    36 H3          19.5860    34.5725     2.4401 H            1 1YP301   0.0000
    37 H4          19.9336    32.2289     2.5079 H            1 1YP301   0.0000
    38 H5          19.2770    32.0884     1.0193 H            1 1YP301   0.0000
    39 H6          12.9222    31.3591     6.4409 H            1 1YP301   0.0000
    40 H7          12.7630    30.6341     8.7993 H            1 1YP301   0.0000
    41 H8          10.5542    27.2224     9.4270 H            1 1YP301   0.0000
    42 H9          13.1405    27.3355     6.4056 H            1 1YP301   0.0000
    43 H10         17.2359    33.1527     2.1455 H            1 1YP301   0.0000
    44 H11         16.0223    32.7912     3.7371 H            1 1YP301   0.0000
    45 H12         16.9525    29.5081     4.9989 H            1 1YP301   0.0000
    46 H13          7.9099    28.4063    12.3783 H            1 1YP301   0.0000
    47 H14         17.2310    24.7971     6.7960 H            1 1YP301   0.0000
@<TRIPOS>BOND
     1    1    2       1
     2    2   16       1
     3    3   16      am
     4    3   17       2
     5    3   18      am
     6    4   13       2
     7    4   24       1
     8    5    6      ar
     9    5    7       1
    10    5   21      ar
    11    6   22      ar
    12    7    8      ar
    13    7   11      ar
    14    8    9      ar
    15    9   10      ar
    16    9   12       1
    17   10   23      ar
    18   11   23      ar
    19   12   24       2
    20   12   26       1
    21   13   25       1
    22   13   26       1
    23   14   21       1
    24   14   27       2
    25   14   30       1
    26   15   28       1
    27   15   31       1
    28   15   32       1
    29   15   33       1
    30   18   19       1
    31   19   20      ar
    32   19   22      ar
    33   20   21      ar
    34   27   28       1
    35   28   29       2
    36   29   30       1
    37    1   34       1
    38    1   35       1
    39    1   36       1
    40    2   37       1
    41    2   38       1
    42    6   39       1
    43    8   40       1
    44   10   41       1
    45   11   42       1
    46   16   43       1
    47   18   44       1
    48   20   45       1
    49   25   46       1
    50   29   47       1
@<TRIPOS>SUBSTRUCTURE
     1 1YP301      1 GROUP             4 A     1YP     0 **** 1YP A 301
