@<TRIPOS>MOLECULE
1id0_ANP_1_ligand
   44    46     1     0     0
SMALL
NO_CHARGES


@<TRIPOS>ATOM
     1 PG          42.6230    26.3930    17.0460 P.3          1 ANP487   0.0000
     2 O1G         41.5400    25.9780    18.2160 O.co2        1 ANP487   0.0000
     3 O2G         41.7130    27.1910    16.1480 O.co2        1 ANP487  -1.0000
     4 O3G         43.4720    25.2830    16.1240 O.co2        1 ANP487  -1.0000
     5 PB          43.4530    28.9640    17.8160 P.3          1 ANP487   0.0000
     6 O1B         44.3590    29.6450    18.8160 O.co2        1 ANP487   0.0000
     7 O2B         43.4950    29.7220    16.5520 O.co2        1 ANP487  -1.0000
     8 N3B         43.7320    27.4450    17.6200 N.3          1 ANP487   0.0000
     9 PA          40.8130    30.1360    18.4050 P.3          1 ANP487   0.0000
    10 O1A         41.1390    31.5380    18.7790 O.co2        1 ANP487   0.0000
    11 O2A         40.3220    29.8740    17.0130 O.co2        1 ANP487  -1.0000
    12 O3A         42.0340    29.1060    18.5220 O.3          1 ANP487   0.0000
    13 O5'         39.7800    29.5860    19.4270 O.3          1 ANP487   0.0000
    14 C5'         40.3140    29.3710    20.7830 C.3          1 ANP487   0.0000
    15 C4'         39.8120    28.1530    21.4930 C.3          1 ANP487   0.0000
    16 O4'         38.3770    28.0760    21.5740 O.3          1 ANP487   0.0000
    17 C3'         40.2470    26.8930    20.8450 C.3          1 ANP487   0.0000
    18 O3'         41.6250    26.5340    21.1520 O.3          1 ANP487   0.0000
    19 C2'         39.1410    25.8820    21.3020 C.3          1 ANP487   0.0000
    20 O2'         39.6570    25.4570    22.5610 O.3          1 ANP487   0.0000
    21 C1'         37.9240    26.7280    21.4710 C.3          1 ANP487   0.0000
    22 N9          37.0120    26.5430    20.3430 N.pl3        1 ANP487   0.0000
    23 C8          36.7610    27.3800    19.2750 C.2          1 ANP487   0.0000
    24 N7          35.8380    26.8290    18.4440 N.2          1 ANP487   0.0000
    25 C5          35.5210    25.6720    18.9890 C.ar         1 ANP487   0.0000
    26 C6          34.6000    24.7060    18.5210 C.ar         1 ANP487   0.0000
    27 N6          33.9440    24.9230    17.4060 N.pl3        1 ANP487   0.0000
    28 N1          34.4160    23.5380    19.2670 N.ar         1 ANP487   0.0000
    29 C2          35.1610    23.3860    20.4480 C.ar         1 ANP487   0.0000
    30 N3          36.0270    24.3390    20.8480 N.ar         1 ANP487   0.0000
    31 C4          36.2460    25.4910    20.1680 C.ar         1 ANP487   0.0000
    32 H3B         43.9988    27.0977    18.5190 H            1 ANP487   0.0000
    33 H5'1        40.0765    30.1691    21.3368 H            1 ANP487   0.0000
    34 H5'2        41.3089    29.2977    20.7133 H            1 ANP487   0.0000
    35 H4'         40.1754    28.1647    22.4245 H            1 ANP487   0.0000
    36 H3'         40.1701    27.0105    19.8549 H            1 ANP487   0.0000
    37 H6          42.0163    26.0268    20.3841 H            1 ANP487   0.0000
    38 H2'         39.0084    25.1285    20.6581 H            1 ANP487   0.0000
    39 H8          40.6561    25.4961    22.5422 H            1 ANP487   0.0000
    40 H1'         37.4582    26.4708    22.3177 H            1 ANP487   0.0000
    41 H10         37.1976    28.2683    19.1325 H            1 ANP487   0.0000
    42 H11         33.2914    24.2441    17.0696 H            1 ANP487   0.0000
    43 H12         34.0965    25.7674    16.8924 H            1 ANP487   0.0000
    44 H13         35.0476    22.5597    20.9997 H            1 ANP487   0.0000
@<TRIPOS>BOND
     1    1    2      ar
     2    1    3      ar
     3    1    4      ar
     4    1    8       1
     5    5    6      ar
     6    5    7      ar
     7    5    8       1
     8    5   12       1
     9    9   10      ar
    10    9   11      ar
    11    9   12       1
    12    9   13       1
    13   13   14       1
    14   14   15       1
    15   15   16       1
    16   15   17       1
    17   16   21       1
    18   17   18       1
    19   17   19       1
    20   19   20       1
    21   19   21       1
    22   21   22       1
    23   22   23       1
    24   22   31       1
    25   23   24       2
    26   24   25       1
    27   25   26      ar
    28   25   31      ar
    29   26   27       1
    30   26   28      ar
    31   28   29      ar
    32   29   30      ar
    33   30   31      ar
    34   29   44       1
    35   27   43       1
    36   27   42       1
    37    8   32       1
    38   23   41       1
    39   14   33       1
    40   14   34       1
    41   15   35       1
    42   17   36       1
    43   18   37       1
    44   19   38       1
    45   20   39       1
    46   21   40       1
@<TRIPOS>SUBSTRUCTURE
     1 ANP487      1 GROUP             4 A     ANP     0 **** ANP A 487
