@<TRIPOS>MOLECULE
4f86_SFG_6_ligand
   51    53     1     0     0
SMALL
NO_CHARGES


@<TRIPOS>ATOM
     1 N           32.0700   -23.0890    25.8530 N.4          1 SFG501   1.0000
     2 CA          31.9130   -24.5060    25.4970 C.3          1 SFG501   0.0000
     3 C           32.8260   -25.3590    26.3800 C.2          1 SFG501   0.0000
     4 O           33.9230   -24.8570    26.7100 O.co2        1 SFG501   0.0000
     5 OXT         32.4100   -26.4930    26.7010 O.co2        1 SFG501  -1.0000
     6 CB          32.3040   -24.7100    24.0320 C.3          1 SFG501   0.0000
     7 CG          31.4600   -23.8320    23.1070 C.3          1 SFG501   0.0000
     8 CD          31.8430   -24.0560    21.6420 C.3          1 SFG501   0.0000
     9 NE          33.2810   -23.8030    21.4700 N.4          1 SFG501   1.0000
    10 C5'         31.0490   -23.0920    20.7590 C.3          1 SFG501   0.0000
    11 C4'         29.5500   -23.3390    20.9330 C.3          1 SFG501   0.0000
    12 O4'         28.7350   -22.3350    20.3170 O.3          1 SFG501   0.0000
    13 C3'         29.0570   -24.6480    20.3110 C.3          1 SFG501   0.0000
    14 O3'         29.0610   -25.6810    21.2990 O.3          1 SFG501   0.0000
    15 C2'         27.6120   -24.3160    19.9300 C.3          1 SFG501   0.0000
    16 O2'         26.7270   -25.2150    20.6050 O.3          1 SFG501   0.0000
    17 C1'         27.4350   -22.9090    20.5050 C.3          1 SFG501   0.0000
    18 N9          26.4020   -22.1360    19.7810 N.pl3        1 SFG501   0.0000
    19 C8          26.5400   -21.5960    18.5720 C.2          1 SFG501   0.0000
    20 N7          25.4390   -20.9170    18.2600 N.2          1 SFG501   0.0000
    21 C5          24.5900   -21.0270    19.2770 C.ar         1 SFG501   0.0000
    22 C6          23.3160   -20.5360    19.5310 C.ar         1 SFG501   0.0000
    23 N6          22.6970   -19.7760    18.6310 N.pl3        1 SFG501   0.0000
    24 N1          22.7260   -20.8360    20.6960 N.ar         1 SFG501   0.0000
    25 C2          23.3380   -21.5850    21.5970 C.ar         1 SFG501   0.0000
    26 N3          24.5500   -22.0690    21.3900 N.ar         1 SFG501   0.0000
    27 C4          25.2010   -21.8090    20.2470 C.ar         1 SFG501   0.0000
    28 H1          32.7974   -22.6846    25.2986 H            1 SFG501   0.0000
    29 H2          31.2119   -22.6051    25.6813 H            1 SFG501   0.0000
    30 HA          30.9615   -24.7826    25.6321 H            1 SFG501   0.0000
    31 HB1         32.1645   -25.6696    23.7877 H            1 SFG501   0.0000
    32 HB2         33.2686   -24.4733    23.9158 H            1 SFG501   0.0000
    33 HG1         31.6093   -22.8714    23.3413 H            1 SFG501   0.0000
    34 HG2         30.4941   -24.0592    23.2313 H            1 SFG501   0.0000
    35 HD          31.6347   -24.9987    21.3812 H            1 SFG501   0.0000
    36 HE1         33.6338   -24.3748    20.7293 H            1 SFG501   0.0000
    37 HE2         33.4253   -22.8394    21.2449 H            1 SFG501   0.0000
    38 H5'1        31.2997   -23.2366    19.8018 H            1 SFG501   0.0000
    39 H5'2        31.2623   -22.1508    21.0209 H            1 SFG501   0.0000
    40 H4'         29.3441   -23.3568    21.9114 H            1 SFG501   0.0000
    41 H3'         29.5996   -24.9023    19.5104 H            1 SFG501   0.0000
    42 H15         29.7848   -25.5020    21.9654 H            1 SFG501   0.0000
    43 H2'         27.4752   -24.3330    18.9395 H            1 SFG501   0.0000
    44 H17         27.1877   -26.0908    20.7491 H            1 SFG501   0.0000
    45 H1'         27.2140   -22.9570    21.4791 H            1 SFG501   0.0000
    46 H19         27.3468   -21.6867    17.9882 H            1 SFG501   0.0000
    47 H20         21.7797   -19.4251    18.8190 H            1 SFG501   0.0000
    48 H21         23.1492   -19.5558    17.7667 H            1 SFG501   0.0000
    49 H22         22.8718   -21.7906    22.4574 H            1 SFG501   0.0000
    50 H23         32.3076   -23.0129    26.8214 H            1 SFG501   0.0000
    51 HE3         33.7620   -24.0227    22.3188 H            1 SFG501   0.0000
@<TRIPOS>BOND
     1    1    2       1
     2    2    3       1
     3    2    6       1
     4    3    4      ar
     5    3    5      ar
     6    6    7       1
     7    7    8       1
     8    8    9       1
     9    8   10       1
    10   10   11       1
    11   11   12       1
    12   11   13       1
    13   12   17       1
    14   13   14       1
    15   13   15       1
    16   15   16       1
    17   15   17       1
    18   17   18       1
    19   18   19       1
    20   18   27       1
    21   19   20       2
    22   20   21       1
    23   21   22      ar
    24   21   27      ar
    25   22   23       1
    26   22   24      ar
    27   24   25      ar
    28   25   26      ar
    29   26   27      ar
    30    1   28       1
    31    1   29       1
    32    2   30       1
    33    1   50       1
    34    6   31       1
    35    6   32       1
    36    7   33       1
    37    7   34       1
    38    8   35       1
    39    9   36       1
    40    9   37       1
    41   10   38       1
    42   10   39       1
    43   11   40       1
    44   13   41       1
    45   14   42       1
    46   15   43       1
    47   16   44       1
    48   17   45       1
    49   19   46       1
    50   23   47       1
    51   23   48       1
    52   25   49       1
    53    9   51       1
@<TRIPOS>SUBSTRUCTURE
     1 SFG501      1 GROUP             4 F     SFG     0 **** SFG F 501
