@<TRIPOS>MOLECULE
2whd_FAD_2_ligand
   84    89     1     0     0
SMALL
NO_CHARGES


@<TRIPOS>ATOM
     1 PA         -24.3840    16.4450    22.7490 P.3          1 FAD400   0.0000
     2 O1A        -24.8360    17.7060    23.4390 O.co2        1 FAD400   0.0000
     3 O2A        -24.7060    15.0600    23.2460 O.co2        1 FAD400  -1.0000
     4 O5B        -24.9720    16.7360    21.2800 O.3          1 FAD400   0.0000
     5 C5B        -25.0290    15.7890    20.2000 C.3          1 FAD400   0.0000
     6 C4B        -25.7660    16.5140    19.0760 C.3          1 FAD400   0.0000
     7 O4B        -25.4830    16.0070    17.7730 O.3          1 FAD400   0.0000
     8 C3B        -27.2670    16.4570    19.2870 C.3          1 FAD400   0.0000
     9 O3B        -27.7760    17.7800    19.0860 O.3          1 FAD400   0.0000
    10 C2B        -27.7770    15.5890    18.1770 C.3          1 FAD400   0.0000
    11 O2B        -28.9930    16.1500    17.6830 O.3          1 FAD400   0.0000
    12 C1B        -26.7110    15.7140    17.1110 C.3          1 FAD400   0.0000
    13 N9A        -26.6390    14.4240    16.4260 N.pl3        1 FAD400   0.0000
    14 C8A        -26.6200    13.2140    17.0060 C.2          1 FAD400   0.0000
    15 N7A        -26.5360    12.2640    16.0470 N.2          1 FAD400   0.0000
    16 C5A        -26.5050    12.9130    14.8610 C.ar         1 FAD400   0.0000
    17 C6A        -26.4360    12.4960    13.5580 C.ar         1 FAD400   0.0000
    18 N6A        -26.3930    11.1750    13.2770 N.pl3        1 FAD400   0.0000
    19 N1A        -26.3950    13.4190    12.5790 N.ar         1 FAD400   0.0000
    20 C2A        -26.4460    14.7260    12.8430 C.ar         1 FAD400   0.0000
    21 N3A        -26.5250    15.1620    14.0980 N.ar         1 FAD400   0.0000
    22 C4A        -26.5530    14.2740    15.1110 C.ar         1 FAD400   0.0000
    23 N1         -23.0250    19.6560    31.5540 N.2          1 FAD400   0.0000
    24 C2         -22.3810    20.6990    32.1010 C.2          1 FAD400   0.0000
    25 O2         -21.1440    20.7700    31.9620 O.2          1 FAD400   0.0000
    26 N3         -23.0650    21.6380    32.7990 N.pl3        1 FAD400   0.0000
    27 C4         -24.3990    21.5330    32.9810 C.2          1 FAD400   0.0000
    28 O4         -25.0120    22.4220    33.6200 O.2          1 FAD400   0.0000
    29 C4X        -25.0840    20.4640    32.3940 C.2          1 FAD400   0.0000
    30 N5         -26.4300    20.3460    32.5180 N.2          1 FAD400   0.0000
    31 C5X        -27.0470    19.2930    31.9410 C.ar         1 FAD400   0.0000
    32 C6         -28.4290    19.1670    32.0430 C.ar         1 FAD400   0.0000
    33 C7         -29.0580    18.0750    31.4460 C.ar         1 FAD400   0.0000
    34 C7M        -30.5460    17.8860    31.5460 C.3          1 FAD400   0.0000
    35 C8         -28.3200    17.1500    30.7430 C.ar         1 FAD400   0.0000
    36 C8M        -28.9990    15.9850    30.0650 C.3          1 FAD400   0.0000
    37 C9         -26.9430    17.2860    30.6380 C.ar         1 FAD400   0.0000
    38 C9A        -26.3020    18.3490    31.2300 C.ar         1 FAD400   0.0000
    39 N10        -24.9750    18.4690    31.0810 N.pl3        1 FAD400   0.0000
    40 C10        -24.3650    19.5150    31.6700 C.2          1 FAD400   0.0000
    41 C1'        -24.1850    17.4580    30.3190 C.3          1 FAD400   0.0000
    42 C2'        -23.7960    18.0050    28.9280 C.3          1 FAD400   0.0000
    43 O2'        -24.9550    18.5320    28.2700 O.3          1 FAD400   0.0000
    44 C3'        -23.1380    16.9830    28.0060 C.3          1 FAD400   0.0000
    45 O3'        -22.0360    16.3630    28.6720 O.3          1 FAD400   0.0000
    46 C4'        -22.6400    17.5880    26.6910 C.3          1 FAD400   0.0000
    47 O4'        -23.7030    18.2390    25.9750 O.3          1 FAD400   0.0000
    48 C5'        -21.9850    16.5570    25.7550 C.3          1 FAD400   0.0000
    49 O5'        -21.9950    17.2690    24.5230 O.3          1 FAD400   0.0000
    50 P          -21.5260    16.6620    23.1250 P.3          1 FAD400   0.0000
    51 O1P        -20.7610    15.3880    23.3520 O.co2        1 FAD400   0.0000
    52 O2P        -20.9110    17.7770    22.3590 O.co2        1 FAD400  -1.0000
    53 O3P        -22.8480    16.2760    22.3310 O.3          1 FAD400   0.0000
    54 H5B1       -25.5303    14.9694    20.4774 H            1 FAD400   0.0000
    55 H5B2       -24.1074    15.5331    19.9081 H            1 FAD400   0.0000
    56 H4B        -25.4896    17.4748    19.0979 H            1 FAD400   0.0000
    57 H3B        -27.5065    16.0948    20.1878 H            1 FAD400   0.0000
    58 H5         -27.1995    18.2623    18.4264 H            1 FAD400   0.0000
    59 H2B        -27.8980    14.6412    18.4721 H            1 FAD400   0.0000
    60 H7         -29.5808    15.4189    17.3365 H            1 FAD400   0.0000
    61 H1B        -26.9439    16.4414    16.4656 H            1 FAD400   0.0000
    62 H8A        -26.6614    13.0422    17.9903 H            1 FAD400   0.0000
    63 H6A1       -26.3426    10.8673    12.3268 H            1 FAD400   0.0000
    64 H6A2       -26.4116    10.5051    14.0192 H            1 FAD400   0.0000
    65 H2A        -26.4247    15.3843    12.0906 H            1 FAD400   0.0000
    66 H13        -22.5749    22.4197    33.1847 H            1 FAD400   0.0000
    67 H14        -28.9645    19.8511    32.5383 H            1 FAD400   0.0000
    68 H7M1       -30.8097    17.0534    31.0590 H            1 FAD400   0.0000
    69 H7M2       -30.8081    17.8068    32.5078 H            1 FAD400   0.0000
    70 H7M3       -31.0100    18.6721    31.1377 H            1 FAD400   0.0000
    71 H8M1       -28.3130    15.4207    29.6057 H            1 FAD400   0.0000
    72 H8M2       -29.4794    15.4354    30.7485 H            1 FAD400   0.0000
    73 H8M3       -29.6544    16.3270    29.3916 H            1 FAD400   0.0000
    74 H21        -26.4138    16.6072    30.1290 H            1 FAD400   0.0000
    75 H1'1       -24.7345    16.6304    30.2044 H            1 FAD400   0.0000
    76 H1'2       -23.3537    17.2382    30.8295 H            1 FAD400   0.0000
    77 H2'        -23.1509    18.7570    29.0631 H            1 FAD400   0.0000
    78 H25        -24.8516    18.4304    27.2806 H            1 FAD400   0.0000
    79 H3'        -23.8117    16.2761    27.7904 H            1 FAD400   0.0000
    80 H27        -21.9212    15.4306    28.3293 H            1 FAD400   0.0000
    81 H4'        -21.9526    18.2794    26.9133 H            1 FAD400   0.0000
    82 H29        -23.8161    17.8065    25.0805 H            1 FAD400   0.0000
    83 H5'1       -22.5242    15.7167    25.6986 H            1 FAD400   0.0000
    84 H5'2       -21.0537    16.3366    26.0449 H            1 FAD400   0.0000
@<TRIPOS>BOND
     1    1    2      ar
     2    1    3      ar
     3    1    4       1
     4    1   53       1
     5    4    5       1
     6    5    6       1
     7    6    7       1
     8    6    8       1
     9    7   12       1
    10    8    9       1
    11    8   10       1
    12   10   11       1
    13   10   12       1
    14   12   13       1
    15   13   14       1
    16   13   22       1
    17   14   15       2
    18   15   16       1
    19   16   17      ar
    20   16   22      ar
    21   17   18       1
    22   17   19      ar
    23   19   20      ar
    24   20   21      ar
    25   21   22      ar
    26   23   24       1
    27   23   40       2
    28   24   25       2
    29   24   26       1
    30   26   27       1
    31   27   28       2
    32   27   29       1
    33   29   30       2
    34   29   40       1
    35   30   31       1
    36   31   32      ar
    37   31   38      ar
    38   32   33      ar
    39   33   34       1
    40   33   35      ar
    41   35   36       1
    42   35   37      ar
    43   37   38      ar
    44   38   39       1
    45   39   40       1
    46   39   41       1
    47   41   42       1
    48   42   43       1
    49   42   44       1
    50   44   45       1
    51   44   46       1
    52   46   47       1
    53   46   48       1
    54   48   49       1
    55   49   50       1
    56   50   51      ar
    57   50   52      ar
    58   50   53       1
    59   48   84       1
    60    5   54       1
    61    5   55       1
    62    6   56       1
    63    8   57       1
    64    9   58       1
    65   10   59       1
    66   11   60       1
    67   12   61       1
    68   14   62       1
    69   18   63       1
    70   18   64       1
    71   20   65       1
    72   26   66       1
    73   32   67       1
    74   34   68       1
    75   34   69       1
    76   34   70       1
    77   36   71       1
    78   36   72       1
    79   36   73       1
    80   37   74       1
    81   41   75       1
    82   41   76       1
    83   42   77       1
    84   43   78       1
    85   44   79       1
    86   45   80       1
    87   46   81       1
    88   47   82       1
    89   48   83       1
@<TRIPOS>SUBSTRUCTURE
     1 FAD400      1 GROUP             4 B     FAD     0 **** FAD B 400
