@<TRIPOS>MOLECULE
3dwr_0PA_6_ligand
   20    20     1     0     0
SMALL
NO_CHARGES


@<TRIPOS>ATOM
     1 O2           2.8000    47.0760    15.3330 O.co2        1 0PA506   0.0000
     2 C1           1.8750    47.0710    14.4920 C.2          1 0PA506   0.0000
     3 O1           0.9570    46.2230    14.4880 O.co2        1 0PA506  -1.0000
     4 C2           1.8760    48.1640    13.4530 C.3          1 0PA506   0.0000
     5 C3           1.9830    47.6000    12.0460 C.3          1 0PA506   0.0000
     6 C4           3.3010    46.8630    11.8460 C.3          1 0PA506   0.0000
     7 C5           4.2240    47.7860    11.0590 C.3          1 0PA506   0.0000
     8 C6           3.4250    49.0280    10.6850 C.3          1 0PA506   0.0000
     9 C7           1.9780    48.7710    11.0750 C.3          1 0PA506   0.0000
    10 H1           2.6543    48.7693    13.6198 H            1 0PA506   0.0000
    11 H2           1.0260    48.6851    13.5297 H            1 0PA506   0.0000
    12 H3           1.2130    46.9904    11.8576 H            1 0PA506   0.0000
    13 H4           3.1458    46.0177    11.3347 H            1 0PA506   0.0000
    14 H5           3.7094    46.6461    12.7327 H            1 0PA506   0.0000
    15 H6           4.5433    47.3241    10.2315 H            1 0PA506   0.0000
    16 H7           5.0098    48.0428    11.6216 H            1 0PA506   0.0000
    17 H8           3.4898    49.1928     9.7008 H            1 0PA506   0.0000
    18 H9           3.7766    49.8227    11.1799 H            1 0PA506   0.0000
    19 H10          1.5915    49.5813    11.5155 H            1 0PA506   0.0000
    20 H11          1.4387    48.5431    10.2643 H            1 0PA506   0.0000
@<TRIPOS>BOND
     1    1    2      ar
     2    2    3      ar
     3    2    4       1
     4    4    5       1
     5    5    6       1
     6    5    9       1
     7    6    7       1
     8    7    8       1
     9    8    9       1
    10    9   20       1
    11    4   10       1
    12    4   11       1
    13    5   12       1
    14    6   13       1
    15    6   14       1
    16    7   15       1
    17    7   16       1
    18    8   17       1
    19    8   18       1
    20    9   19       1
@<TRIPOS>SUBSTRUCTURE
     1 0PA506      1 GROUP             4 B     0PA     0 **** 0PA B 506
