@<TRIPOS>MOLECULE
3d9d_N6C_4_ligand
   22    21     1     0     0
SMALL
NO_CHARGES


@<TRIPOS>ATOM
     1 O1          65.1160   -26.0130   -12.0470 O.co2        1 N6C600   0.0000
     2 N1          65.5970   -26.6300   -12.9870 N.2          1 N6C600   1.0000
     3 O2          64.9780   -27.5780   -13.4550 O.co2        1 N6C600  -1.0000
     4 C1          66.9050   -26.2400   -13.5090 C.3          1 N6C600   0.0000
     5 C2          67.2500   -26.9580   -14.8180 C.3          1 N6C600   0.0000
     6 C3          68.5930   -26.4900   -15.3510 C.3          1 N6C600   0.0000
     7 C4          68.8630   -25.0480   -14.9340 C.3          1 N6C600   0.0000
     8 C5          68.1770   -24.0280   -15.8250 C.3          1 N6C600   0.0000
     9 C6          68.8620   -22.7390   -16.2510 C.3          1 N6C600   0.0000
    10 H1          67.6020   -26.4626   -12.8274 H            1 N6C600   0.0000
    11 H2          66.9036   -25.2538   -13.6745 H            1 N6C600   0.0000
    12 H3          66.5417   -26.7621   -15.4961 H            1 N6C600   0.0000
    13 H4          67.2885   -27.9433   -14.6514 H            1 N6C600   0.0000
    14 H5          68.5887   -26.5481   -16.3493 H            1 N6C600   0.0000
    15 H6          69.3146   -27.0783   -14.9859 H            1 N6C600   0.0000
    16 H7          69.8494   -24.8870   -14.9679 H            1 N6C600   0.0000
    17 H8          68.5367   -24.9219   -13.9972 H            1 N6C600   0.0000
    18 H9          67.3416   -23.7562   -15.3473 H            1 N6C600   0.0000
    19 H10         67.9373   -24.5093   -16.6681 H            1 N6C600   0.0000
    20 H11         68.2439   -22.2093   -16.8318 H            1 N6C600   0.0000
    21 H12         69.0984   -22.2035   -15.4403 H            1 N6C600   0.0000
    22 H13         69.6942   -22.9566   -16.7611 H            1 N6C600   0.0000
@<TRIPOS>BOND
     1    1    2      ar
     2    2    3      ar
     3    2    4       1
     4    4    5       1
     5    5    6       1
     6    6    7       1
     7    7    8       1
     8    8    9       1
     9    4   10       1
    10    4   11       1
    11    5   12       1
    12    5   13       1
    13    6   14       1
    14    6   15       1
    15    7   16       1
    16    7   17       1
    17    8   18       1
    18    8   19       1
    19    9   20       1
    20    9   21       1
    21    9   22       1
@<TRIPOS>SUBSTRUCTURE
     1 N6C600      1 GROUP             4 D     N6C     0 **** N6C D 600
