@<TRIPOS>MOLECULE
5djt_FMN_1_ligand
   50    52     1     0     0
SMALL
NO_CHARGES


@<TRIPOS>ATOM
     1 N1         -31.6660   -21.9850    15.3990 N.2          1 FMN602   0.0000
     2 C2         -32.9970   -21.7440    15.6610 C.2          1 FMN602   0.0000
     3 O2         -33.7280   -22.6850    16.0040 O.2          1 FMN602   0.0000
     4 N3         -33.5540   -20.4830    15.5170 N.pl3        1 FMN602   0.0000
     5 C4         -32.8000   -19.4200    15.1280 C.2          1 FMN602   0.0000
     6 O4         -33.3720   -18.3330    14.9680 O.2          1 FMN602   0.0000
     7 C4A        -31.4360   -19.6250    14.8980 C.2          1 FMN602   0.0000
     8 N5         -30.6290   -18.5480    14.5480 N.2          1 FMN602   0.0000
     9 C5A        -29.3160   -18.7810    14.2120 C.ar         1 FMN602   0.0000
    10 C6         -28.4990   -17.7430    13.8310 C.ar         1 FMN602   0.0000
    11 C7         -27.1720   -17.9140    13.4840 C.ar         1 FMN602   0.0000
    12 C7M        -26.3730   -16.7300    13.0120 C.3          1 FMN602   0.0000
    13 C8         -26.6190   -19.1850    13.6000 C.ar         1 FMN602   0.0000
    14 C8M        -25.1770   -19.4390    13.2480 C.3          1 FMN602   0.0000
    15 C9         -27.4280   -20.2420    14.0110 C.ar         1 FMN602   0.0000
    16 C9A        -28.7660   -20.0590    14.3430 C.ar         1 FMN602   0.0000
    17 N10        -29.5810   -21.1300    14.7550 N.pl3        1 FMN602   0.0000
    18 C10        -30.9100   -20.9180    15.0110 C.2          1 FMN602   0.0000
    19 C1'        -29.0160   -22.5260    14.7760 C.3          1 FMN602   0.0000
    20 C2'        -28.4070   -23.0710    16.0260 C.3          1 FMN602   0.0000
    21 O2'        -27.5570   -22.0710    16.5310 O.3          1 FMN602   0.0000
    22 C3'        -27.5770   -24.3050    15.7000 C.3          1 FMN602   0.0000
    23 O3'        -26.7620   -24.0360    14.5730 O.3          1 FMN602   0.0000
    24 C4'        -28.4250   -25.5250    15.3410 C.3          1 FMN602   0.0000
    25 O4'        -29.2860   -25.8310    16.4320 O.3          1 FMN602   0.0000
    26 C5'        -27.5430   -26.7160    14.9370 C.3          1 FMN602   0.0000
    27 O5'        -26.5250   -26.9630    15.9120 O.3          1 FMN602   0.0000
    28 P          -26.7390   -27.9490    17.1830 P.3          1 FMN602   0.0000
    29 O1P        -25.3880   -27.9450    17.8840 O.co2        1 FMN602   0.0000
    30 O2P        -27.1640   -29.3090    16.6630 O.co2        1 FMN602  -1.0000
    31 O3P        -27.7900   -27.3310    18.0570 O.co2        1 FMN602  -1.0000
    32 H1         -34.5279   -20.3524    15.7025 H            1 FMN602   0.0000
    33 H2         -28.8831   -16.8201    13.8036 H            1 FMN602   0.0000
    34 H7M1       -25.4392   -17.0201    12.8025 H            1 FMN602   0.0000
    35 H7M2       -26.7959   -16.3488    12.1899 H            1 FMN602   0.0000
    36 H7M3       -26.3527   -16.0340    13.7298 H            1 FMN602   0.0000
    37 H8M1       -24.9633   -20.4049    13.3944 H            1 FMN602   0.0000
    38 H8M2       -25.0220   -19.2050    12.2882 H            1 FMN602   0.0000
    39 H8M3       -24.5882   -18.8758    13.8277 H            1 FMN602   0.0000
    40 H9         -27.0349   -21.1597    14.0690 H            1 FMN602   0.0000
    41 H1'1       -28.3069   -22.5602    14.0717 H            1 FMN602   0.0000
    42 H1'2       -29.7629   -23.1426    14.5272 H            1 FMN602   0.0000
    43 H2'        -29.1182   -23.2944    16.6925 H            1 FMN602   0.0000
    44 H13        -27.1252   -22.3945    17.3730 H            1 FMN602   0.0000
    45 H3'        -26.9949   -24.5268    16.4823 H            1 FMN602   0.0000
    46 H15        -27.2549   -24.2829    13.7387 H            1 FMN602   0.0000
    47 H4'        -28.9957   -25.2837    14.5561 H            1 FMN602   0.0000
    48 H17        -28.7373   -26.0299    17.2440 H            1 FMN602   0.0000
    49 H5'1       -27.1105   -26.5176    14.0575 H            1 FMN602   0.0000
    50 H5'2       -28.1158   -27.5311    14.8504 H            1 FMN602   0.0000
@<TRIPOS>BOND
     1    1    2       1
     2    1   18       2
     3    2    3       2
     4    2    4       1
     5    4    5       1
     6    5    6       2
     7    5    7       1
     8    7    8       2
     9    7   18       1
    10    8    9       1
    11    9   10      ar
    12    9   16      ar
    13   10   11      ar
    14   11   12       1
    15   11   13      ar
    16   13   14       1
    17   13   15      ar
    18   15   16      ar
    19   16   17       1
    20   17   18       1
    21   17   19       1
    22   19   20       1
    23   20   21       1
    24   20   22       1
    25   22   23       1
    26   22   24       1
    27   24   25       1
    28   24   26       1
    29   26   27       1
    30   27   28       1
    31   28   29      ar
    32   28   30      ar
    33   28   31      ar
    34    4   32       1
    35   10   33       1
    36   12   34       1
    37   12   35       1
    38   12   36       1
    39   14   37       1
    40   14   38       1
    41   14   39       1
    42   15   40       1
    43   19   41       1
    44   19   42       1
    45   20   43       1
    46   21   44       1
    47   22   45       1
    48   23   46       1
    49   24   47       1
    50   25   48       1
    51   26   49       1
    52   26   50       1
@<TRIPOS>SUBSTRUCTURE
     1 FMN602      1 GROUP             4 A     FMN     0 **** FMN A 602
