@<TRIPOS>MOLECULE
3nhj_A2Z_1_ligand
   27    29     1     0     0
SMALL
NO_CHARGES


@<TRIPOS>ATOM
     1 C1          -1.8930    -6.5670   -17.1520 C.ar         1 A2Z231   0.0000
     2 N1          -4.8890    -7.8670   -15.1200 N.pl3        1 A2Z231   0.0000
     3 O1          -3.3530    -3.3960   -15.9820 O.3          1 A2Z231   0.0000
     4 C2          -2.8020    -7.4530   -16.5400 C.ar         1 A2Z231   0.0000
     5 O2          -4.9230    -4.7350   -14.9250 O.3          1 A2Z231   0.0000
     6 C3          -3.9550    -6.9640   -15.7220 C.ar         1 A2Z231   0.0000
     7 O3          -5.5000   -10.0630   -14.7660 O.2          1 A2Z231   0.0000
     8 C4          -4.0210    -5.5120   -15.5980 C.ar         1 A2Z231   0.0000
     9 C5          -3.0300    -4.6790   -16.2660 C.ar         1 A2Z231   0.0000
    10 C6          -1.9950    -5.1720   -17.0370 C.ar         1 A2Z231   0.0000
    11 C8          -4.6890    -9.2610   -15.3040 C.2          1 A2Z231   0.0000
    12 C9          -3.6260    -9.7630   -16.0770 C.2          1 A2Z231   0.0000
    13 C10         -2.6810    -8.9320   -16.6920 C.2          1 A2Z231   0.0000
    14 C12         -4.5280    -3.3490   -15.1300 C.3          1 A2Z231   0.0000
    15 C15         -1.5540    -9.5330   -17.5010 C.3          1 A2Z231   0.0000
    16 C16         -6.0210    -7.4260   -14.3010 C.3          1 A2Z231   0.0000
    17 H1          -1.1427    -6.9488   -17.6917 H            1 A2Z231   0.0000
    18 H2          -1.3471    -4.5618   -17.4930 H            1 A2Z231   0.0000
    19 H3          -3.5418   -10.7528   -16.1919 H            1 A2Z231   0.0000
    20 H4          -5.2630    -2.8398   -15.5778 H            1 A2Z231   0.0000
    21 H5          -4.3074    -2.9165   -14.2557 H            1 A2Z231   0.0000
    22 H6          -1.6324   -10.5299   -17.4926 H            1 A2Z231   0.0000
    23 H7          -1.6070    -9.2024   -18.4433 H            1 A2Z231   0.0000
    24 H8          -0.6772    -9.2642   -17.1022 H            1 A2Z231   0.0000
    25 H9          -6.5358    -8.2236   -13.9867 H            1 A2Z231   0.0000
    26 H10         -5.6819    -6.9156   -13.5108 H            1 A2Z231   0.0000
    27 H11         -6.6180    -6.8378   -14.8466 H            1 A2Z231   0.0000
@<TRIPOS>BOND
     1    1    4      ar
     2    1   10      ar
     3    2    6       1
     4    2   11       1
     5    2   16       1
     6    3    9       1
     7    3   14       1
     8    4    6      ar
     9    4   13       1
    10    5    8       1
    11    5   14       1
    12    6    8      ar
    13    7   11       2
    14    8    9      ar
    15    9   10      ar
    16   11   12       1
    17   12   13       2
    18   13   15       1
    19    1   17       1
    20   10   18       1
    21   12   19       1
    22   14   20       1
    23   14   21       1
    24   15   22       1
    25   15   23       1
    26   15   24       1
    27   16   25       1
    28   16   26       1
    29   16   27       1
@<TRIPOS>SUBSTRUCTURE
     1 A2Z231      1 GROUP             4 B     A2Z     0 **** A2Z B 231
