@<TRIPOS>MOLECULE
1sto_OMP_1_ligand
   32    33     1     0     0
SMALL
NO_CHARGES


@<TRIPOS>ATOM
     1 P           19.7160    26.7240    15.9000 P.3          1 OMP216   0.0000
     2 O1P         18.4600    26.1670    16.5100 O.co2        1 OMP216   0.0000
     3 O2P         20.9870    26.5280    16.6710 O.co2        1 OMP216  -1.0000
     4 O3P         19.6760    26.2560    14.4800 O.co2        1 OMP216  -1.0000
     5 O5'         19.7060    28.3290    15.3720 O.3          1 OMP216   0.0000
     6 C5'         19.1190    29.2420    14.4210 C.3          1 OMP216   0.0000
     7 C4'         17.8630    29.9920    14.9310 C.3          1 OMP216   0.0000
     8 O4'         18.0930    30.6780    16.1600 O.3          1 OMP216   0.0000
     9 C3'         16.8630    30.7600    14.3900 C.2          1 OMP216   0.0000
    10 O3'         15.6830    30.3710    13.6720 O.2          1 OMP216   0.0000
    11 C2'         16.9150    32.2460    14.8660 C.3          1 OMP216   0.0000
    12 O2'         15.8900    32.9980    14.5970 O.3          1 OMP216   0.0000
    13 C1'         17.1110    31.7470    16.3090 C.3          1 OMP216   0.0000
    14 N1          17.5570    32.8340    17.1670 N.pl3        1 OMP216   0.0000
    15 C2          18.4020    33.5580    16.6310 C.2          1 OMP216   0.0000
    16 O2          18.9530    33.4790    15.4220 O.2          1 OMP216   0.0000
    17 N3          18.9870    34.5550    17.3200 N.pl3        1 OMP216   0.0000
    18 C4          18.6640    34.7550    18.5960 C.2          1 OMP216   0.0000
    19 O4          19.2440    35.6080    19.3470 O.2          1 OMP216   0.0000
    20 C5          17.7390    33.9690    19.2480 C.2          1 OMP216   0.0000
    21 C6          17.0630    32.9880    18.5080 C.2          1 OMP216   0.0000
    22 C7          16.1270    32.3010    19.3160 C.2          1 OMP216   0.0000
    23 O71         14.9350    32.0570    19.0050 O.co2        1 OMP216   0.0000
    24 O72         16.5630    31.4640    20.1300 O.co2        1 OMP216  -1.0000
    25 H5'1        18.8612    28.7207    13.6075 H            1 OMP216   0.0000
    26 H5'2        19.8096    29.9225    14.1759 H            1 OMP216   0.0000
    27 H4'         17.3243    29.2182    15.2643 H            1 OMP216   0.0000
    28 H2'         17.7535    32.6809    14.5378 H            1 OMP216   0.0000
    29 H5          15.0722    32.6121    15.0240 H            1 OMP216   0.0000
    30 H1'         16.2520    31.3716    16.6570 H            1 OMP216   0.0000
    31 H7          19.6620    35.1436    16.8751 H            1 OMP216   0.0000
    32 H8          17.5546    34.0947    20.2228 H            1 OMP216   0.0000
@<TRIPOS>BOND
     1    1    2      ar
     2    1    3      ar
     3    1    4      ar
     4    1    5       1
     5    5    6       1
     6    6    7       1
     7    7    8       1
     8    7    9       1
     9    8   13       1
    10    9   10       2
    11    9   11       1
    12   11   12       1
    13   11   13       1
    14   13   14       1
    15   14   15       1
    16   14   21       1
    17   15   16       2
    18   15   17       1
    19   17   18       1
    20   18   19       2
    21   18   20       1
    22   20   21       2
    23   21   22       1
    24   22   23      ar
    25   22   24      ar
    26   17   31       1
    27   20   32       1
    28    6   25       1
    29    6   26       1
    30    7   27       1
    31   11   28       1
    32   12   29       1
    33   13   30       1
@<TRIPOS>SUBSTRUCTURE
     1 OMP216      1 GROUP             4 A     OMP     0 **** OMP A 216
