@<TRIPOS>MOLECULE
3a6p_GTP_1_ligand
   44    46     1     0     0
SMALL
NO_CHARGES


@<TRIPOS>ATOM
     1 PG          15.2110   132.5120    12.5290 P.3          1 GTP1177   0.0000
     2 O1G         15.6750   133.0950    13.8500 O.co2        1 GTP1177   0.0000
     3 O2G         16.4560   131.9480    11.8500 O.co2        1 GTP1177  -1.0000
     4 O3G         14.3040   133.4830    11.7480 O.co2        1 GTP1177  -1.0000
     5 O3B         14.3010   131.2490    12.8370 O.3          1 GTP1177   0.0000
     6 PB          14.6070   130.5060    14.1940 P.3          1 GTP1177   0.0000
     7 O1B         15.9430   129.8080    14.1400 O.co2        1 GTP1177   0.0000
     8 O2B         14.4650   131.4730    15.3410 O.co2        1 GTP1177  -1.0000
     9 O3A         13.3290   129.5750    14.0600 O.3          1 GTP1177   0.0000
    10 PA          12.3740   129.3420    15.3140 P.3          1 GTP1177   0.0000
    11 O1A         13.2530   129.0160    16.4890 O.co2        1 GTP1177   0.0000
    12 O2A         11.4900   130.5650    15.4270 O.co2        1 GTP1177  -1.0000
    13 O5'         11.5180   128.0180    14.9510 O.3          1 GTP1177   0.0000
    14 C5'         10.6430   128.0270    13.8160 C.3          1 GTP1177   0.0000
    15 C4'          9.5870   126.9040    13.7910 C.3          1 GTP1177   0.0000
    16 O4'         10.0920   125.6030    14.0660 O.3          1 GTP1177   0.0000
    17 C3'          8.4980   127.1530    14.8050 C.3          1 GTP1177   0.0000
    18 O3'          7.3050   127.0770    14.0650 O.3          1 GTP1177   0.0000
    19 C2'          8.6300   126.0280    15.8240 C.3          1 GTP1177   0.0000
    20 O2'          7.3530   125.5720    16.2060 O.3          1 GTP1177   0.0000
    21 C1'          9.3540   124.9380    15.0720 C.3          1 GTP1177   0.0000
    22 N9          10.3390   124.1310    15.8090 N.pl3        1 GTP1177   0.0000
    23 C8          11.5350   124.5450    16.3470 C.2          1 GTP1177   0.0000
    24 N7          12.1780   123.4680    16.8790 N.2          1 GTP1177   0.0000
    25 C5          11.4150   122.3630    16.6730 C.2          1 GTP1177   0.0000
    26 C6          11.5860   121.0000    17.0000 C.2          1 GTP1177   0.0000
    27 O6          12.5980   120.6010    17.5950 O.2          1 GTP1177   0.0000
    28 N1          10.5950   120.0880    16.6310 N.pl3        1 GTP1177   0.0000
    29 C2           9.4600   120.5130    15.9370 C.2          1 GTP1177   0.0000
    30 N2           8.5260   119.6300    15.5880 N.pl3        1 GTP1177   0.0000
    31 N3           9.2990   121.8650    15.6150 N.2          1 GTP1177   0.0000
    32 C4          10.2560   122.7720    15.9840 C.2          1 GTP1177   0.0000
    33 H5'1        11.2039   127.9423    12.9925 H            1 GTP1177   0.0000
    34 H5'2        10.1623   128.9038    13.8032 H            1 GTP1177   0.0000
    35 H4'          9.1691   126.8900    12.8826 H            1 GTP1177   0.0000
    36 H3'          8.6014   128.0489    15.2370 H            1 GTP1177   0.0000
    37 H5           6.5257   127.2328    14.6720 H            1 GTP1177   0.0000
    38 H2'          9.1573   126.3254    16.6199 H            1 GTP1177   0.0000
    39 H7           6.8378   126.3261    16.6133 H            1 GTP1177   0.0000
    40 H1'          8.6842   124.3314    14.6437 H            1 GTP1177   0.0000
    41 H9          11.8774   125.4846    16.3476 H            1 GTP1177   0.0000
    42 H10         10.6990   119.1216    16.8659 H            1 GTP1177   0.0000
    43 H11          7.7127   119.9326    15.0910 H            1 GTP1177   0.0000
    44 H12          8.6381   118.6645    15.8229 H            1 GTP1177   0.0000
@<TRIPOS>BOND
     1    1    2      ar
     2    1    3      ar
     3    1    4      ar
     4    1    5       1
     5    5    6       1
     6    6    7      ar
     7    6    8      ar
     8    6    9       1
     9    9   10       1
    10   10   11      ar
    11   10   12      ar
    12   10   13       1
    13   13   14       1
    14   14   15       1
    15   15   16       1
    16   15   17       1
    17   16   21       1
    18   17   18       1
    19   17   19       1
    20   19   20       1
    21   19   21       1
    22   21   22       1
    23   22   23       1
    24   22   32       1
    25   23   24       2
    26   24   25       1
    27   25   26       1
    28   25   32       2
    29   26   27       2
    30   26   28       1
    31   28   29       1
    32   29   30       1
    33   29   31       2
    34   31   32       1
    35   30   44       1
    36   30   43       1
    37   28   42       1
    38   23   41       1
    39   14   33       1
    40   14   34       1
    41   15   35       1
    42   17   36       1
    43   18   37       1
    44   19   38       1
    45   20   39       1
    46   21   40       1
@<TRIPOS>SUBSTRUCTURE
     1 GTP1177     1 GROUP             4 C     GTP     0 **** GTP C1177
