@<TRIPOS>MOLECULE
5jlc_1YN_1_ligand
   87    93     1     0     0
SMALL
NO_CHARGES


@<TRIPOS>ATOM
     1 C12        -45.3280    84.0380   -22.8400 C.ar         1 1YN602   0.0000
     2 C11        -46.4890    84.2310   -22.1040 C.ar         1 1YN602   0.0000
     3 C01        -50.6770    88.9440   -23.5340 C.3          1 1YN602   0.0000
     4 C02        -49.3690    89.5010   -22.9900 C.3          1 1YN602   0.0000
     5 C03        -48.1100    88.7620   -23.5210 C.3          1 1YN602   0.0000
     6 C04        -46.8870    89.6460   -23.3190 C.3          1 1YN602   0.0000
     7 N05        -47.9300    87.3960   -22.8610 N.pl3        1 1YN602   0.0000
     8 C06        -46.9620    86.4810   -23.1280 C.2          1 1YN602   0.0000
     9 O07        -46.0560    86.5510   -23.9380 O.2          1 1YN602   0.0000
    10 N08        -47.2670    85.4380   -22.2570 N.pl3        1 1YN602   0.0000
    11 C09        -48.3850    85.7580   -21.5280 C.2          1 1YN602   0.0000
    12 N10        -48.8090    86.9780   -21.8910 N.2          1 1YN602   0.0000
    13 C13        -44.5230    82.9380   -22.6000 C.ar         1 1YN602   0.0000
    14 C14        -44.8630    82.0110   -21.6180 C.ar         1 1YN602   0.0000
    15 C15        -46.0540    82.1890   -20.9190 C.ar         1 1YN602   0.0000
    16 C16        -46.8580    83.2890   -21.1580 C.ar         1 1YN602   0.0000
    17 N17        -43.9770    80.9910   -21.2600 N.pl3        1 1YN602   0.0000
    18 C18        -42.7250    80.7980   -22.0060 C.3          1 1YN602   0.0000
    19 C19        -42.6160    79.4160   -22.6390 C.3          1 1YN602   0.0000
    20 N20        -42.9770    78.3730   -21.6790 N.pl3        1 1YN602   0.0000
    21 C21        -44.3670    78.5630   -21.2720 C.3          1 1YN602   0.0000
    22 C22        -44.5030    79.8490   -20.5020 C.3          1 1YN602   0.0000
    23 C23        -42.5470    77.0570   -21.8740 C.ar         1 1YN602   0.0000
    24 C24        -42.1320    76.6210   -23.1280 C.ar         1 1YN602   0.0000
    25 C25        -41.6900    75.3230   -23.3170 C.ar         1 1YN602   0.0000
    26 C26        -41.6580    74.4440   -22.2500 C.ar         1 1YN602   0.0000
    27 C27        -42.0700    74.8600   -20.9960 C.ar         1 1YN602   0.0000
    28 C28        -42.5150    76.1570   -20.8130 C.ar         1 1YN602   0.0000
    29 O29        -41.2160    73.1700   -22.5090 O.3          1 1YN602   0.0000
    30 C30        -41.1670    72.2280   -21.4320 C.3          1 1YN602   0.0000
    31 C31        -41.2200    70.8330   -22.0040 C.3          1 1YN602   0.0000
    32 C32        -41.9030    70.7660   -23.3450 C.3          1 1YN602   0.0000
    33 O33        -40.8700    71.0690   -24.2500 O.3          1 1YN602   0.0000
    34 C34        -39.6700    70.5220   -23.7170 C.3          1 1YN602   0.0000
    35 O35        -39.8960    70.3450   -22.3160 O.3          1 1YN602   0.0000
    36 C36        -38.5200    71.5780   -23.8830 C.3          1 1YN602   0.0000
    37 N37        -37.2000    71.0080   -23.7100 N.pl3        1 1YN602   0.0000
    38 C38        -36.7760    70.1040   -22.8320 C.2          1 1YN602   0.0000
    39 N39        -35.5000    69.8360   -23.0000 N.2          1 1YN602   0.0000
    40 C40        -35.1780    70.6400   -24.0320 C.2          1 1YN602   0.0000
    41 N41        -36.1610    71.3690   -24.5070 N.2          1 1YN602   0.0000
    42 C42        -39.4200    69.2100   -24.4440 C.ar         1 1YN602   0.0000
    43 C43        -39.4040    69.1150   -25.8390 C.ar         1 1YN602   0.0000
    44 C44        -39.1320    67.9230   -26.4800 C.ar         1 1YN602   0.0000
    45 C45        -38.8640    66.8090   -25.7170 C.ar         1 1YN602   0.0000
    46 C46        -38.8800    66.8560   -24.3450 C.ar         1 1YN602   0.0000
    47 C47        -39.1610    68.0540   -23.7190 C.ar         1 1YN602   0.0000
    48 CL8        -38.4580    65.3150   -26.5140 Cl           1 1YN602   0.0000
    49 CL9        -39.7140    70.4950   -26.8430 Cl           1 1YN602   0.0000
    50 H1         -45.0719    84.6970   -23.5472 H            1 1YN602   0.0000
    51 H2         -51.4434    89.4621   -23.1543 H            1 1YN602   0.0000
    52 H3         -50.6834    89.0217   -24.5310 H            1 1YN602   0.0000
    53 H4         -50.7635    87.9822   -23.2741 H            1 1YN602   0.0000
    54 H5         -49.3833    89.4249   -21.9930 H            1 1YN602   0.0000
    55 H6         -49.3032    90.4644   -23.2499 H            1 1YN602   0.0000
    56 H7         -48.2279    88.6174   -24.5034 H            1 1YN602   0.0000
    57 H8         -46.0742    89.1735   -23.6598 H            1 1YN602   0.0000
    58 H9         -47.0088    90.5030   -23.8197 H            1 1YN602   0.0000
    59 H10        -46.7747    89.8421   -22.3449 H            1 1YN602   0.0000
    60 H11        -48.8143    85.1757   -20.8376 H            1 1YN602   0.0000
    61 H12        -43.6894    82.8077   -23.1368 H            1 1YN602   0.0000
    62 H13        -46.3315    81.5134   -20.2359 H            1 1YN602   0.0000
    63 H14        -47.7090    83.4046   -20.6457 H            1 1YN602   0.0000
    64 H15        -41.9572    80.9221   -21.3775 H            1 1YN602   0.0000
    65 H16        -42.6768    81.4852   -22.7309 H            1 1YN602   0.0000
    66 H17        -41.6751    79.2688   -22.9442 H            1 1YN602   0.0000
    67 H18        -43.2329    79.3659   -23.4244 H            1 1YN602   0.0000
    68 H19        -44.6508    77.7983   -20.6934 H            1 1YN602   0.0000
    69 H20        -44.9486    78.5998   -22.0847 H            1 1YN602   0.0000
    70 H21        -45.4703    80.0083   -20.3046 H            1 1YN602   0.0000
    71 H22        -43.9965    79.7683   -19.6435 H            1 1YN602   0.0000
    72 H23        -42.1532    77.2531   -23.9026 H            1 1YN602   0.0000
    73 H24        -41.3944    75.0215   -24.2235 H            1 1YN602   0.0000
    74 H25        -42.0461    74.2246   -20.2241 H            1 1YN602   0.0000
    75 H26        -42.8176    76.4517   -19.9066 H            1 1YN602   0.0000
    76 H27        -41.9477    72.3718   -20.8238 H            1 1YN602   0.0000
    77 H28        -40.3176    72.3486   -20.9183 H            1 1YN602   0.0000
    78 H29        -41.6698    70.2151   -21.3591 H            1 1YN602   0.0000
    79 H30        -42.6407    71.4385   -23.4052 H            1 1YN602   0.0000
    80 H31        -42.2708    69.8517   -23.5143 H            1 1YN602   0.0000
    81 H32        -38.6480    72.2985   -23.2014 H            1 1YN602   0.0000
    82 H33        -38.5793    71.9724   -24.8000 H            1 1YN602   0.0000
    83 H34        -37.3537    69.6820   -22.1333 H            1 1YN602   0.0000
    84 H35        -34.2532    70.6788   -24.4104 H            1 1YN602   0.0000
    85 H36        -39.1297    67.8698   -27.4786 H            1 1YN602   0.0000
    86 H37        -38.6909    66.0346   -23.8070 H            1 1YN602   0.0000
    87 H38        -39.1785    68.0903   -22.7198 H            1 1YN602   0.0000
@<TRIPOS>BOND
     1    1    2      ar
     2    1   13      ar
     3    2   10       1
     4    2   16      ar
     5    3    4       1
     6    4    5       1
     7    5    6       1
     8    5    7       1
     9    7    8       1
    10    7   12       1
    11    8    9       2
    12    8   10       1
    13   10   11       1
    14   11   12       2
    15   13   14      ar
    16   14   15      ar
    17   14   17       1
    18   15   16      ar
    19   17   18       1
    20   17   22       1
    21   18   19       1
    22   19   20       1
    23   20   21       1
    24   20   23       1
    25   21   22       1
    26   23   24      ar
    27   23   28      ar
    28   24   25      ar
    29   25   26      ar
    30   26   27      ar
    31   26   29       1
    32   27   28      ar
    33   29   30       1
    34   30   31       1
    35   31   32       1
    36   31   35       1
    37   32   33       1
    38   33   34       1
    39   34   35       1
    40   34   36       1
    41   34   42       1
    42   36   37       1
    43   37   38       1
    44   37   41       1
    45   38   39       2
    46   39   40       1
    47   40   41       2
    48   42   43      ar
    49   42   47      ar
    50   43   44      ar
    51   43   49       1
    52   44   45      ar
    53   45   46      ar
    54   45   48       1
    55   46   47      ar
    56    1   50       1
    57    3   51       1
    58    3   52       1
    59    3   53       1
    60    4   54       1
    61    4   55       1
    62    5   56       1
    63    6   57       1
    64    6   58       1
    65    6   59       1
    66   11   60       1
    67   13   61       1
    68   15   62       1
    69   16   63       1
    70   18   64       1
    71   18   65       1
    72   19   66       1
    73   19   67       1
    74   21   68       1
    75   21   69       1
    76   22   70       1
    77   22   71       1
    78   24   72       1
    79   25   73       1
    80   27   74       1
    81   28   75       1
    82   30   76       1
    83   30   77       1
    84   31   78       1
    85   32   79       1
    86   32   80       1
    87   36   81       1
    88   36   82       1
    89   38   83       1
    90   40   84       1
    91   44   85       1
    92   46   86       1
    93   47   87       1
@<TRIPOS>SUBSTRUCTURE
     1 1YN602      1 GROUP             4 A     1YN     0 **** 1YN A 602
