@<TRIPOS>MOLECULE
2eq9_FAD_7_ligand
   84    89     1     0     0
SMALL
NO_CHARGES


@<TRIPOS>ATOM
     1 PA          77.1210    46.7740    -8.5030 P.3          1 FAD6482   0.0000
     2 O1A         77.0330    46.0410    -7.2050 O.co2        1 FAD6482   0.0000
     3 O2A         77.5170    48.0760    -8.5430 O.co2        1 FAD6482  -1.0000
     4 O5B         78.2470    45.9330    -9.1080 O.3          1 FAD6482   0.0000
     5 C5B         78.9050    46.2320   -10.3850 C.3          1 FAD6482   0.0000
     6 C4B         80.2870    45.5370   -10.2760 C.3          1 FAD6482   0.0000
     7 O4B         80.8870    45.5950   -11.6130 O.3          1 FAD6482   0.0000
     8 C3B         81.3120    46.1810    -9.3250 C.3          1 FAD6482   0.0000
     9 O3B         81.9100    45.3200    -8.4240 O.3          1 FAD6482   0.0000
    10 C2B         82.2410    46.9330   -10.2600 C.3          1 FAD6482   0.0000
    11 O2B         83.5280    47.1090    -9.7270 O.3          1 FAD6482   0.0000
    12 C1B         82.2890    46.0340   -11.4580 C.3          1 FAD6482   0.0000
    13 N9A         82.5480    46.6540   -12.7670 N.pl3        1 FAD6482   0.0000
    14 C8A         81.9730    47.8060   -13.2750 C.2          1 FAD6482   0.0000
    15 N7A         82.4110    48.1090   -14.5060 N.2          1 FAD6482   0.0000
    16 C5A         83.3080    47.1110   -14.8070 C.ar         1 FAD6482   0.0000
    17 C6A         84.1250    46.8660   -16.0070 C.ar         1 FAD6482   0.0000
    18 N6A         84.1160    47.6390   -17.0660 N.pl3        1 FAD6482   0.0000
    19 N1A         84.9210    45.7430   -15.9470 N.ar         1 FAD6482   0.0000
    20 C2A         84.9570    44.9070   -14.8600 C.ar         1 FAD6482   0.0000
    21 N3A         84.2420    45.0510   -13.7220 N.ar         1 FAD6482   0.0000
    22 C4A         83.4270    46.1730   -13.7400 C.ar         1 FAD6482   0.0000
    23 N1          70.0650    48.5820    -2.4450 N.2          1 FAD6482   0.0000
    24 C2          69.1800    47.8690    -1.7710 C.2          1 FAD6482   0.0000
    25 O2          68.4660    47.1010    -2.3160 O.2          1 FAD6482   0.0000
    26 N3          69.0380    47.9850    -0.3490 N.pl3        1 FAD6482   0.0000
    27 C4          69.8260    48.8600     0.3880 C.2          1 FAD6482   0.0000
    28 O4          69.6750    48.9240     1.5880 O.2          1 FAD6482   0.0000
    29 C4X         70.8060    49.6610    -0.3470 C.2          1 FAD6482   0.0000
    30 N5          71.6090    50.5440     0.3060 N.2          1 FAD6482   0.0000
    31 C5X         72.5160    51.2710    -0.4340 C.ar         1 FAD6482   0.0000
    32 C6          73.3450    52.2000     0.2570 C.ar         1 FAD6482   0.0000
    33 C7          74.2830    52.9730    -0.4170 C.ar         1 FAD6482   0.0000
    34 C7M         75.1400    53.9500     0.3510 C.3          1 FAD6482   0.0000
    35 C8          74.4360    52.8340    -1.8700 C.ar         1 FAD6482   0.0000
    36 C8M         75.4400    53.6410    -2.6640 C.3          1 FAD6482   0.0000
    37 C9          73.6170    51.9150    -2.5670 C.ar         1 FAD6482   0.0000
    38 C9A         72.6660    51.1420    -1.8720 C.ar         1 FAD6482   0.0000
    39 N10         71.7920    50.1920    -2.5180 N.pl3        1 FAD6482   0.0000
    40 C10         70.8890    49.4740    -1.8030 C.2          1 FAD6482   0.0000
    41 C1'         71.8880    49.9970    -3.9890 C.3          1 FAD6482   0.0000
    42 C2'         72.5770    48.6130    -4.2940 C.3          1 FAD6482   0.0000
    43 O2'         73.8850    48.6510    -3.7240 O.3          1 FAD6482   0.0000
    44 C3'         72.6430    48.4320    -5.8010 C.3          1 FAD6482   0.0000
    45 O3'         71.3130    48.4090    -6.3140 O.3          1 FAD6482   0.0000
    46 C4'         73.3100    47.1030    -6.1680 C.3          1 FAD6482   0.0000
    47 O4'         74.6870    47.0320    -5.6780 O.3          1 FAD6482   0.0000
    48 C5'         73.2990    46.9970    -7.6740 C.3          1 FAD6482   0.0000
    49 O5'         73.9880    45.6370    -8.0820 O.3          1 FAD6482   0.0000
    50 P           74.6820    45.5750    -9.4130 P.3          1 FAD6482   0.0000
    51 O1P         75.1190    44.0840    -9.4820 O.co2        1 FAD6482   0.0000
    52 O2P         73.8860    46.0250   -10.4470 O.co2        1 FAD6482  -1.0000
    53 O3P         75.8250    46.5090    -9.4010 O.3          1 FAD6482   0.0000
    54 H5B1        79.0133    47.2188   -10.5052 H            1 FAD6482   0.0000
    55 H5B2        78.3801    45.8587   -11.1499 H            1 FAD6482   0.0000
    56 H4B         80.1541    44.5804   -10.0168 H            1 FAD6482   0.0000
    57 H3B         80.8205    46.8675    -8.7891 H            1 FAD6482   0.0000
    58 H5          82.7409    44.9382    -8.8289 H            1 FAD6482   0.0000
    59 H2B         81.8438    47.8172   -10.5059 H            1 FAD6482   0.0000
    60 H7          83.9381    46.2155    -9.5441 H            1 FAD6482   0.0000
    61 H1B         82.8961    45.2550   -11.3009 H            1 FAD6482   0.0000
    62 H8A         81.3017    48.3546   -12.7767 H            1 FAD6482   0.0000
    63 H6A1        84.6949    47.4184   -17.8510 H            1 FAD6482   0.0000
    64 H6A2        83.5302    48.4491   -17.0887 H            1 FAD6482   0.0000
    65 H2A         85.5689    44.1179   -14.9146 H            1 FAD6482   0.0000
    66 H13         68.3573    47.4241     0.1222 H            1 FAD6482   0.0000
    67 H14         73.2503    52.2982     1.2476 H            1 FAD6482   0.0000
    68 H7M1        75.7562    54.4209    -0.2804 H            1 FAD6482   0.0000
    69 H7M2        74.5544    54.6201     0.8072 H            1 FAD6482   0.0000
    70 H7M3        75.6771    53.4563     1.0349 H            1 FAD6482   0.0000
    71 H8M1        75.3784    53.3918    -3.6305 H            1 FAD6482   0.0000
    72 H8M2        75.2429    54.6156    -2.5579 H            1 FAD6482   0.0000
    73 H8M3        76.3622    53.4489    -2.3284 H            1 FAD6482   0.0000
    74 H21         73.7134    51.8136    -3.5572 H            1 FAD6482   0.0000
    75 H1'1        72.4323    50.7350    -4.3879 H            1 FAD6482   0.0000
    76 H1'2        70.9706    50.0070    -4.3868 H            1 FAD6482   0.0000
    77 H2'         72.0475    47.8704    -3.8839 H            1 FAD6482   0.0000
    78 H25         74.5002    48.0752    -4.2626 H            1 FAD6482   0.0000
    79 H3'         73.1506    49.1898    -6.2109 H            1 FAD6482   0.0000
    80 H27         71.3086    48.7734    -7.2452 H            1 FAD6482   0.0000
    81 H4'         72.7810    46.3487    -5.7792 H            1 FAD6482   0.0000
    82 H29         75.3100    46.9109    -6.4508 H            1 FAD6482   0.0000
    83 H5'1        73.8040    47.7638    -8.0703 H            1 FAD6482   0.0000
    84 H5'2        72.3561    47.0112    -8.0068 H            1 FAD6482   0.0000
@<TRIPOS>BOND
     1    1    2      ar
     2    1    3      ar
     3    1    4       1
     4    1   53       1
     5    4    5       1
     6    5    6       1
     7    6    7       1
     8    6    8       1
     9    7   12       1
    10    8    9       1
    11    8   10       1
    12   10   11       1
    13   10   12       1
    14   12   13       1
    15   13   14       1
    16   13   22       1
    17   14   15       2
    18   15   16       1
    19   16   17      ar
    20   16   22      ar
    21   17   18       1
    22   17   19      ar
    23   19   20      ar
    24   20   21      ar
    25   21   22      ar
    26   23   24       1
    27   23   40       2
    28   24   25       2
    29   24   26       1
    30   26   27       1
    31   27   28       2
    32   27   29       1
    33   29   30       2
    34   29   40       1
    35   30   31       1
    36   31   32      ar
    37   31   38      ar
    38   32   33      ar
    39   33   34       1
    40   33   35      ar
    41   35   36       1
    42   35   37      ar
    43   37   38      ar
    44   38   39       1
    45   39   40       1
    46   39   41       1
    47   41   42       1
    48   42   43       1
    49   42   44       1
    50   44   45       1
    51   44   46       1
    52   46   47       1
    53   46   48       1
    54   48   49       1
    55   49   50       1
    56   50   51      ar
    57   50   52      ar
    58   50   53       1
    59   48   84       1
    60    5   54       1
    61    5   55       1
    62    6   56       1
    63    8   57       1
    64    9   58       1
    65   10   59       1
    66   11   60       1
    67   12   61       1
    68   14   62       1
    69   18   63       1
    70   18   64       1
    71   20   65       1
    72   26   66       1
    73   32   67       1
    74   34   68       1
    75   34   69       1
    76   34   70       1
    77   36   71       1
    78   36   72       1
    79   36   73       1
    80   37   74       1
    81   41   75       1
    82   41   76       1
    83   42   77       1
    84   43   78       1
    85   44   79       1
    86   45   80       1
    87   46   81       1
    88   47   82       1
    89   48   83       1
@<TRIPOS>SUBSTRUCTURE
     1 FAD6482     1 GROUP             4 J     FAD     0 **** FAD J6482
