@<TRIPOS>MOLECULE
4ikz_AFS_1_ligand
   24    23     1     0     0
SMALL
NO_CHARGES


@<TRIPOS>ATOM
     1 O1          14.1030    15.3910     3.1490 O.2          1 AFS607   0.0000
     2 N1          11.8920    14.4150     1.8400 N.4          1 AFS607   1.0000
     3 CA1         13.1820    14.4360     1.2070 C.3          1 AFS607   0.0000
     4 C1          14.2370    14.5750     2.2490 C.2          1 AFS607   0.0000
     5 CB1         13.2710    15.5810     0.2570 C.3          1 AFS607   0.0000
     6 N2          15.4050    13.7500     2.1890 N.am         1 AFS607   0.0000
     7 CA2         16.4250    13.8740     3.1880 C.3          1 AFS607   0.0000
     8 CB2         17.1180    12.5630     3.3690 C.3          1 AFS607   0.0000
     9 P           17.6380    15.1420     2.6860 P.3          1 AFS607   0.0000
    10 O21         19.0070    14.9340     3.2530 O.co2        1 AFS607   0.0000
    11 O22         17.2840    16.5360     3.0980 O.co2        1 AFS607  -1.0000
    12 O23         17.8550    15.2290     1.2080 O.co2        1 AFS607  -1.0000
    13 H1          11.2101    14.8029     1.2199 H            1 AFS607   0.0000
    14 H2          11.6440    13.4716     2.0601 H            1 AFS607   0.0000
    15 HA1         13.3200    13.5804     0.7081 H            1 AFS607   0.0000
    16 HB11        14.1720    15.5850    -0.1767 H            1 AFS607   0.0000
    17 HB12        12.5640    15.4882    -0.4441 H            1 AFS607   0.0000
    18 HB13        13.1367    16.4380     0.7544 H            1 AFS607   0.0000
    19 H7          15.5095    13.0859     1.4487 H            1 AFS607   0.0000
    20 HA2         16.0052    14.1458     4.0540 H            1 AFS607   0.0000
    21 HB21        17.8284    12.6550     4.0668 H            1 AFS607   0.0000
    22 HB22        16.4548    11.8724     3.6575 H            1 AFS607   0.0000
    23 HB23        17.5347    12.2840     2.5038 H            1 AFS607   0.0000
    24 H12         11.9243    14.9559     2.6804 H            1 AFS607   0.0000
@<TRIPOS>BOND
     1    1    4       2
     2    2    3       1
     3    3    4       1
     4    3    5       1
     5    4    6      am
     6    6    7       1
     7    7    8       1
     8    7    9       1
     9    9   10      ar
    10    9   11      ar
    11    9   12      ar
    12    2   13       1
    13    2   14       1
    14    3   15       1
    15    5   16       1
    16    5   17       1
    17    5   18       1
    18    6   19       1
    19    7   20       1
    20    8   21       1
    21    8   22       1
    22    8   23       1
    23    2   24       1
@<TRIPOS>SUBSTRUCTURE
     1 AFS607      1 GROUP             4 A     AFS     0 **** AFS A 607
