@<TRIPOS>MOLECULE
1i2l_DCS_1_ligand
   34    35     1     0     0
SMALL
NO_CHARGES


@<TRIPOS>ATOM
     1 N1          15.3250    12.7850    22.9870 N.2          1 DCS301   0.0000
     2 C2          15.0590    11.8370    22.0010 C.2          1 DCS301   0.0000
     3 C2A         14.8010    10.4070    22.3900 C.3          1 DCS301   0.0000
     4 C3          15.0470    12.3000    20.6260 C.2          1 DCS301   0.0000
     5 O3          14.7880    11.3590    19.7020 O.2          1 DCS301   0.0000
     6 C4          15.2990    13.6640    20.3240 C.2          1 DCS301   0.0000
     7 C4A         15.3000    14.1950    18.9470 C.2          1 DCS301   0.0000
     8 C5          15.5680    14.5570    21.4410 C.2          1 DCS301   0.0000
     9 C6          15.5780    14.1140    22.7460 C.2          1 DCS301   0.0000
    10 C5A         15.8590    16.0360    21.1390 C.3          1 DCS301   0.0000
    11 O4P         17.0540    16.5050    20.5220 O.3          1 DCS301   0.0000
    12 P           17.1380    17.7970    19.5800 P.3          1 DCS301   0.0000
    13 O1P         16.2370    17.5760    18.4350 O.co2        1 DCS301   0.0000
    14 O2P         18.5840    17.7750    19.0740 O.co2        1 DCS301  -1.0000
    15 O3P         16.8590    18.9570    20.4100 O.co2        1 DCS301  -1.0000
    16 N           14.2730    14.1450    18.1360 N.pl3        1 DCS301   0.0000
    17 CA          14.2830    14.7600    16.7270 C.3          1 DCS301   0.0000
    18 C           13.5920    13.6130    16.2840 C.2          1 DCS301   0.0000
    19 O           13.8320    12.3460    16.1040 O.2          1 DCS301   0.0000
    20 ND          12.3770    13.9780    15.9720 N.am         1 DCS301   0.0000
    21 OG          12.2650    15.3880    16.2090 O.3          1 DCS301   0.0000
    22 CB          13.4500    15.8780    16.6780 C.3          1 DCS301   0.0000
    23 H2A1        14.6290     9.8638    21.5682 H            1 DCS301   0.0000
    24 H2A2        15.5995    10.0427    22.8693 H            1 DCS301   0.0000
    25 H2A3        14.0030    10.3639    22.9911 H            1 DCS301   0.0000
    26 H4A         16.1401    14.6210    18.6112 H            1 DCS301   0.0000
    27 H5          15.7649    14.7445    23.4994 H            1 DCS301   0.0000
    28 H5A1        15.8060    16.5074    22.0193 H            1 DCS301   0.0000
    29 H5A2        15.1116    16.3441    20.5503 H            1 DCS301   0.0000
    30 HA          15.1904    14.8893    16.3271 H            1 DCS301   0.0000
    31 HB1         13.8193    16.5693    16.0569 H            1 DCS301   0.0000
    32 HB2         13.3347    16.2753    17.5884 H            1 DCS301   0.0000
    33 H11         13.4421    13.6845    18.4483 H            1 DCS301   0.0000
    34 HD          11.6529    13.3798    15.6286 H            1 DCS301   0.0000
@<TRIPOS>BOND
     1    1    2       2
     2    1    9       1
     3    2    3       1
     4    2    4       1
     5    4    5       2
     6    4    6       1
     7    6    7       2
     8    6    8       1
     9    7   16       1
    10    8    9       2
    11    8   10       1
    12   10   11       1
    13   11   12       1
    14   12   13      ar
    15   12   14      ar
    16   12   15      ar
    17   16   17       1
    18   17   18       1
    19   17   22       1
    20   18   19       2
    21   18   20      am
    22   20   21       1
    23   21   22       1
    24    3   23       1
    25    3   24       1
    26    3   25       1
    27   22   32       1
    28    7   26       1
    29    9   27       1
    30   10   28       1
    31   10   29       1
    32   22   31       1
    33   16   33       1
    34   17   30       1
    35   20   34       1
@<TRIPOS>SUBSTRUCTURE
     1 DCS301      1 GROUP             4 A     DCS     0 **** DCS A 301
