@<TRIPOS>MOLECULE
3sfy_3FY_1_ligand
   64    67     1     0     0
SMALL
NO_CHARGES


@<TRIPOS>ATOM
     1 CAA         30.7550   -38.1170    -5.7680 C.3          1 3FY525   0.0000
     2 CAB         37.0290   -37.9300     1.6730 C.3          1 3FY525   0.0000
     3 CAC         39.8240   -32.6090    -4.0590 C.3          1 3FY525   0.0000
     4 OAD         34.2700   -34.4410    -2.7180 O.2          1 3FY525   0.0000
     5 OAE         32.8200   -36.0450    -1.6210 O.2          1 3FY525   0.0000
     6 BRAF        37.7760   -39.3430   -10.7830 Br           1 3FY525   0.0000
     7 CAG         33.0950   -41.1000    -5.8410 C.ar         1 3FY525   0.0000
     8 CAH         34.1130   -40.6880    -4.9810 C.ar         1 3FY525   0.0000
     9 CAI         32.0030   -40.2700    -6.0930 C.ar         1 3FY525   0.0000
    10 CAJ         36.6830   -38.6120    -8.2110 C.ar         1 3FY525   0.0000
    11 CAK         38.5300   -37.2540    -8.8980 C.ar         1 3FY525   0.0000
    12 CAL         34.0310   -39.4450    -4.3720 C.ar         1 3FY525   0.0000
    13 CAM         36.5760   -37.8780    -7.0290 C.ar         1 3FY525   0.0000
    14 CAN         38.4280   -36.5040    -7.7150 C.ar         1 3FY525   0.0000
    15 CAO         37.2810   -33.1800    -6.5310 C.2          1 3FY525   0.0000
    16 CAP         38.3300   -31.4850    -5.7260 C.2          1 3FY525   0.0000
    17 CAQ         37.2970   -36.0320     0.0380 C.2          1 3FY525   0.0000
    18 CAR         35.4400   -37.1630    -0.1460 C.2          1 3FY525   0.0000
    19 CAS         36.4810   -36.5380    -4.4820 C.3          1 3FY525   0.0000
    20 CAT         35.0040   -36.1860    -4.6550 C.3          1 3FY525   0.0000
    21 CAU         32.9220   -37.2410    -3.9280 C.3          1 3FY525   0.0000
    22 CAV         38.3650   -35.1030    -5.1940 C.3          1 3FY525   0.0000
    23 NAW         37.4230   -31.8550    -6.5950 N.2          1 3FY525   0.0000
    24 NAX         36.5900   -35.4940    -0.9590 N.2          1 3FY525   0.0000
    25 CAY         31.9370   -39.0230    -5.4840 C.ar         1 3FY525   0.0000
    26 CAZ         37.6620   -38.3180    -9.1610 C.ar         1 3FY525   0.0000
    27 CBA         37.4380   -36.8000    -6.7530 C.ar         1 3FY525   0.0000
    28 CBB         32.9420   -38.6010    -4.6170 C.ar         1 3FY525   0.0000
    29 CBC         38.1230   -33.6540    -5.6210 C.2          1 3FY525   0.0000
    30 CBD         35.4560   -36.1940    -1.0650 C.2          1 3FY525   0.0000
    31 NBE         37.3520   -36.1080    -5.5870 N.pl3        1 3FY525   0.0000
    32 NBF         34.2900   -36.8540    -3.5430 N.3          1 3FY525   0.0000
    33 NBG         36.5850   -37.0450     0.5300 N.pl3        1 3FY525   0.0000
    34 NBH         38.7660   -32.5910    -5.1410 N.pl3        1 3FY525   0.0000
    35 SBI         34.1680   -35.8600    -2.2550 S.o2         1 3FY525   0.0000
    36 HAA1        30.8583   -37.2640    -5.2563 H            1 3FY525   0.0000
    37 HAA2        30.7167   -37.9160    -6.7468 H            1 3FY525   0.0000
    38 HAA3        29.9104   -38.5734    -5.4881 H            1 3FY525   0.0000
    39 HAB1        36.3245   -38.6155     1.8569 H            1 3FY525   0.0000
    40 HAB2        37.8835   -38.3878     1.4276 H            1 3FY525   0.0000
    41 HAB3        37.1726   -37.3720     2.4903 H            1 3FY525   0.0000
    42 HAC1        39.9897   -33.5520    -3.7705 H            1 3FY525   0.0000
    43 HAC2        40.6716   -32.2155    -4.4150 H            1 3FY525   0.0000
    44 HAC3        39.5098   -32.0714    -3.2766 H            1 3FY525   0.0000
    45 HAG         33.1486   -41.9969    -6.2800 H            1 3FY525   0.0000
    46 HAH         34.8960   -41.2846    -4.8050 H            1 3FY525   0.0000
    47 HAI         31.2732   -40.5701    -6.7073 H            1 3FY525   0.0000
    48 HAJ         36.0455   -39.3636    -8.3806 H            1 3FY525   0.0000
    49 HAK         39.2376   -37.0224    -9.5656 H            1 3FY525   0.0000
    50 HAL         34.7572   -39.1488    -3.7516 H            1 3FY525   0.0000
    51 HAM         35.8713   -38.1233    -6.3633 H            1 3FY525   0.0000
    52 HAN         39.0649   -35.7505    -7.5519 H            1 3FY525   0.0000
    53 HAO         36.6457   -33.7254    -7.0778 H            1 3FY525   0.0000
    54 HAP         38.6341   -30.5506    -5.5403 H            1 3FY525   0.0000
    55 HAQ         38.1955   -35.7301     0.3567 H            1 3FY525   0.0000
    56 HAR         34.7182   -37.8385     0.0048 H            1 3FY525   0.0000
    57 HAS1        36.5559   -37.5314    -4.3956 H            1 3FY525   0.0000
    58 HAS2        36.8076   -36.1048    -3.6420 H            1 3FY525   0.0000
    59 HAT1        34.6679   -36.5220    -5.5349 H            1 3FY525   0.0000
    60 HAT2        34.8750   -35.1956    -4.6051 H            1 3FY525   0.0000
    61 HAU1        32.3492   -37.2921    -3.1099 H            1 3FY525   0.0000
    62 HAU2        32.5479   -36.5573    -4.5546 H            1 3FY525   0.0000
    63 HAV1        38.4277   -35.1150    -4.1960 H            1 3FY525   0.0000
    64 HAV2        39.2392   -35.3892    -5.5864 H            1 3FY525   0.0000
@<TRIPOS>BOND
     1    1   25       1
     2    2   33       1
     3    3   34       1
     4    4   35       2
     5    5   35       2
     6    6   26       1
     7    7    8      ar
     8    7    9      ar
     9    8   12      ar
    10    9   25      ar
    11   10   13      ar
    12   10   26      ar
    13   11   14      ar
    14   11   26      ar
    15   12   28      ar
    16   13   27      ar
    17   14   27      ar
    18   15   23       1
    19   15   29       2
    20   16   23       2
    21   16   34       1
    22   17   24       2
    23   17   33       1
    24   18   30       2
    25   18   33       1
    26   19   20       1
    27   19   31       1
    28   20   32       1
    29   21   28       1
    30   21   32       1
    31   22   29       1
    32   22   31       1
    33   24   30       1
    34   25   28      ar
    35   27   31       1
    36   29   34       1
    37   30   35       1
    38   32   35       1
    39    1   36       1
    40    1   37       1
    41    1   38       1
    42    2   39       1
    43    2   40       1
    44    2   41       1
    45    3   42       1
    46    3   43       1
    47    3   44       1
    48    7   45       1
    49    8   46       1
    50    9   47       1
    51   10   48       1
    52   11   49       1
    53   12   50       1
    54   13   51       1
    55   14   52       1
    56   15   53       1
    57   16   54       1
    58   17   55       1
    59   18   56       1
    60   19   57       1
    61   19   58       1
    62   20   59       1
    63   20   60       1
    64   21   61       1
    65   21   62       1
    66   22   63       1
    67   22   64       1
@<TRIPOS>SUBSTRUCTURE
     1 3FY525      1 GROUP             4 B     3FY     0 **** 3FY B 525
