@<TRIPOS>MOLECULE
4n82_FMN_1_ligand
   50    52     1     0     0
SMALL
NO_CHARGES


@<TRIPOS>ATOM
     1 N1         -20.8890    32.6010    15.7990 N.2          1 FMN201   0.0000
     2 C2         -20.3890    33.7230    15.1660 C.2          1 FMN201   0.0000
     3 O2         -20.9770    34.1700    14.1830 O.2          1 FMN201   0.0000
     4 N3         -19.2380    34.3410    15.6440 N.pl3        1 FMN201   0.0000
     5 C4         -18.5750    33.8290    16.7520 C.2          1 FMN201   0.0000
     6 O4         -17.5510    34.3870    17.1720 O.2          1 FMN201   0.0000
     7 C4A        -19.0690    32.6910    17.3880 C.2          1 FMN201   0.0000
     8 N5         -18.4230    32.1680    18.5000 N.2          1 FMN201   0.0000
     9 C5A        -18.9220    31.0380    19.1270 C.ar         1 FMN201   0.0000
    10 C6         -18.2670    30.5100    20.2450 C.ar         1 FMN201   0.0000
    11 C7         -18.7740    29.3750    20.8920 C.ar         1 FMN201   0.0000
    12 C7M        -18.0380    28.8430    22.0930 C.3          1 FMN201   0.0000
    13 C8         -19.9410    28.7670    20.4140 C.ar         1 FMN201   0.0000
    14 C8M        -20.5440    27.5420    21.0560 C.3          1 FMN201   0.0000
    15 C9         -20.5820    29.2980    19.2970 C.ar         1 FMN201   0.0000
    16 C9A        -20.0860    30.4310    18.6470 C.ar         1 FMN201   0.0000
    17 N10        -20.7340    30.9560    17.5300 N.pl3        1 FMN201   0.0000
    18 C10        -20.2310    32.0820    16.9060 C.2          1 FMN201   0.0000
    19 C1'        -21.9900    30.3400    16.9760 C.3          1 FMN201   0.0000
    20 C2'        -21.7130    29.1460    16.0580 C.3          1 FMN201   0.0000
    21 O2'        -20.7880    29.4750    15.0380 O.3          1 FMN201   0.0000
    22 C3'        -23.0200    28.6500    15.4250 C.3          1 FMN201   0.0000
    23 O3'        -23.8330    28.0780    16.4250 O.3          1 FMN201   0.0000
    24 C4'        -22.8170    27.6410    14.2960 C.3          1 FMN201   0.0000
    25 O4'        -24.0540    27.3940    13.6520 O.3          1 FMN201   0.0000
    26 C5'        -22.2290    26.3270    14.8070 C.3          1 FMN201   0.0000
    27 O5'        -22.2430    25.3770    13.7700 O.3          1 FMN201   0.0000
    28 P          -22.0090    23.8160    14.0740 P.3          1 FMN201   0.0000
    29 O1P        -23.1820    23.2990    14.8870 O.co2        1 FMN201   0.0000
    30 O2P        -20.7190    23.5980    14.8200 O.co2        1 FMN201  -1.0000
    31 O3P        -21.9670    23.0840    12.7640 O.co2        1 FMN201  -1.0000
    32 H1         -18.8861    35.1582    15.1875 H            1 FMN201   0.0000
    33 H2         -17.4328    30.9448    20.5841 H            1 FMN201   0.0000
    34 H7M1       -18.5138    28.0372    22.4455 H            1 FMN201   0.0000
    35 H7M2       -17.1069    28.5913    21.8288 H            1 FMN201   0.0000
    36 H7M3       -18.0045    29.5471    22.8023 H            1 FMN201   0.0000
    37 H8M1       -21.3692    27.2764    20.5575 H            1 FMN201   0.0000
    38 H8M2       -19.8829    26.7922    21.0296 H            1 FMN201   0.0000
    39 H8M3       -20.7796    27.7454    22.0063 H            1 FMN201   0.0000
    40 H9         -21.4129    28.8600    18.9539 H            1 FMN201   0.0000
    41 H1'1       -22.4835    31.0359    16.4543 H            1 FMN201   0.0000
    42 H1'2       -22.5573    30.0309    17.7393 H            1 FMN201   0.0000
    43 H2'        -21.3271    28.4059    16.6088 H            1 FMN201   0.0000
    44 H13        -19.9239    29.7618    15.4515 H            1 FMN201   0.0000
    45 H3'        -23.5020    29.4417    15.0496 H            1 FMN201   0.0000
    46 H15        -24.4212    28.7835    16.8203 H            1 FMN201   0.0000
    47 H4'        -22.1843    28.0339    13.6287 H            1 FMN201   0.0000
    48 H17        -23.8905    27.1673    12.6918 H            1 FMN201   0.0000
    49 H5'1       -22.7761    25.9922    15.5742 H            1 FMN201   0.0000
    50 H5'2       -21.2878    26.4775    15.1095 H            1 FMN201   0.0000
@<TRIPOS>BOND
     1    1    2       1
     2    1   18       2
     3    2    3       2
     4    2    4       1
     5    4    5       1
     6    5    6       2
     7    5    7       1
     8    7    8       2
     9    7   18       1
    10    8    9       1
    11    9   10      ar
    12    9   16      ar
    13   10   11      ar
    14   11   12       1
    15   11   13      ar
    16   13   14       1
    17   13   15      ar
    18   15   16      ar
    19   16   17       1
    20   17   18       1
    21   17   19       1
    22   19   20       1
    23   20   21       1
    24   20   22       1
    25   22   23       1
    26   22   24       1
    27   24   25       1
    28   24   26       1
    29   26   27       1
    30   27   28       1
    31   28   29      ar
    32   28   30      ar
    33   28   31      ar
    34    4   32       1
    35   10   33       1
    36   12   34       1
    37   12   35       1
    38   12   36       1
    39   14   37       1
    40   14   38       1
    41   14   39       1
    42   15   40       1
    43   19   41       1
    44   19   42       1
    45   20   43       1
    46   21   44       1
    47   22   45       1
    48   23   46       1
    49   24   47       1
    50   25   48       1
    51   26   49       1
    52   26   50       1
@<TRIPOS>SUBSTRUCTURE
     1 FMN201      1 GROUP             4 A     FMN     0 **** FMN A 201
