@<TRIPOS>MOLECULE
1yc2_APR_4_ligand
   57    60     1     0     0
SMALL
NO_CHARGES


@<TRIPOS>ATOM
     1 N1         -40.2710     8.3740     1.1660 N.ar         1 APR504   0.0000
     2 C2         -39.4760     7.2980     1.0470 C.ar         1 APR504   0.0000
     3 N3         -39.0540     6.8210    -0.1980 N.ar         1 APR504   0.0000
     4 C4         -39.5140     7.5360    -1.3110 C.ar         1 APR504   0.0000
     5 C5         -40.3540     8.6750    -1.2290 C.ar         1 APR504   0.0000
     6 C6         -40.7700     9.1360     0.1160 C.ar         1 APR504   0.0000
     7 N6         -41.5510    10.1860     0.3080 N.pl3        1 APR504   0.0000
     8 N7         -40.6030     9.1130    -2.4760 N.2          1 APR504   0.0000
     9 C8         -39.9600     8.3030    -3.3100 C.2          1 APR504   0.0000
    10 N9         -39.2530     7.2860    -2.6640 N.pl3        1 APR504   0.0000
    11 C1'        -38.4170     6.1810    -3.1280 C.3          1 APR504   0.0000
    12 C2'        -38.6970     5.7860    -4.5910 C.3          1 APR504   0.0000
    13 O2'        -39.8390     5.0200    -4.7940 O.3          1 APR504   0.0000
    14 C3'        -37.3550     5.1910    -4.9940 C.3          1 APR504   0.0000
    15 O3'        -37.3080     3.7350    -4.9300 O.3          1 APR504   0.0000
    16 O4'        -37.0900     6.6460    -3.0890 O.3          1 APR504   0.0000
    17 C4'        -36.3100     5.7760    -3.9930 C.3          1 APR504   0.0000
    18 C5'        -35.2590     6.6570    -4.5980 C.3          1 APR504   0.0000
    19 O5'        -34.4810     5.8210    -5.5080 O.3          1 APR504   0.0000
    20 PA         -33.5900     6.4520    -6.6540 P.3          1 APR504   0.0000
    21 O1A        -33.0330     5.3110    -7.4150 O.co2        1 APR504   0.0000
    22 O2A        -34.3390     7.5180    -7.3740 O.co2        1 APR504  -1.0000
    23 O3A        -32.4280     7.1940    -5.8600 O.3          1 APR504   0.0000
    24 PB         -31.0520     6.7010    -5.1230 P.3          1 APR504   0.0000
    25 O1B        -31.2190     5.3640    -4.5360 O.co2        1 APR504   0.0000
    26 O2B        -30.6400     7.8240    -4.2280 O.co2        1 APR504  -1.0000
    27 O5D        -30.0890     6.5520    -6.4020 O.3          1 APR504   0.0000
    28 C5D        -29.8120     7.7460    -7.1560 C.3          1 APR504   0.0000
    29 O4D        -28.2270     7.5200    -8.9210 O.3          1 APR504   0.0000
    30 O1D        -27.4820     8.3850   -10.9120 O.3          1 APR504   0.0000
    31 C1D        -28.1000     8.7240    -9.6950 C.3          1 APR504   0.0000
    32 O2D        -25.8490     9.3410    -8.7770 O.3          1 APR504   0.0000
    33 C2D        -27.2260     9.6250    -8.7470 C.3          1 APR504   0.0000
    34 O3D        -26.9280     9.4780    -6.2880 O.3          1 APR504   0.0000
    35 C3D        -27.8690     9.3430    -7.3690 C.3          1 APR504   0.0000
    36 C4D        -28.3950     7.8750    -7.4880 C.3          1 APR504   0.0000
    37 H1         -39.1765     6.8231     1.8745 H            1 APR504   0.0000
    38 H2         -41.8890    10.7077    -0.4753 H            1 APR504   0.0000
    39 H3         -41.8035    10.4582     1.2365 H            1 APR504   0.0000
    40 H4         -39.9802     8.4109    -4.3040 H            1 APR504   0.0000
    41 H1'        -38.5248     5.3884    -2.5278 H            1 APR504   0.0000
    42 H2'        -38.8128     6.6333    -5.1094 H            1 APR504   0.0000
    43 H7         -39.7049     4.4252    -5.5866 H            1 APR504   0.0000
    44 H3'        -37.1268     5.4884    -5.9211 H            1 APR504   0.0000
    45 H9         -37.9971     3.3519    -5.5451 H            1 APR504   0.0000
    46 H4'        -35.8812     5.0371    -3.4732 H            1 APR504   0.0000
    47 H5'1       -34.6681     7.0294    -3.8823 H            1 APR504   0.0000
    48 H5'2       -35.6869     7.4078    -5.1011 H            1 APR504   0.0000
    49 H5D1       -30.0892     8.5399    -6.6147 H            1 APR504   0.0000
    50 H5D2       -30.3402     7.7203    -8.0047 H            1 APR504   0.0000
    51 H1D        -26.8743     7.6035   -10.7709 H            1 APR504   0.0000
    52 H16        -28.9952     9.1400    -9.8547 H            1 APR504   0.0000
    53 H2D        -25.3684     9.9544    -8.1502 H            1 APR504   0.0000
    54 H18        -27.3681    10.5859    -8.9849 H            1 APR504   0.0000
    55 H3D        -27.4089     9.7728    -5.4623 H            1 APR504   0.0000
    56 H20        -28.6386     9.9648    -7.2239 H            1 APR504   0.0000
    57 H4D        -27.8487     7.2646    -6.9144 H            1 APR504   0.0000
@<TRIPOS>BOND
     1    1    2      ar
     2    1    6      ar
     3    2    3      ar
     4    3    4      ar
     5    4    5      ar
     6    4   10       1
     7    5    6      ar
     8    5    8       1
     9    6    7       1
    10    8    9       2
    11    9   10       1
    12   10   11       1
    13   11   12       1
    14   11   16       1
    15   12   13       1
    16   12   14       1
    17   14   15       1
    18   14   17       1
    19   16   17       1
    20   17   18       1
    21   18   19       1
    22   19   20       1
    23   20   21      ar
    24   20   22      ar
    25   20   23       1
    26   23   24       1
    27   24   25      ar
    28   24   26      ar
    29   24   27       1
    30   27   28       1
    31   28   36       1
    32   29   31       1
    33   29   36       1
    34   30   31       1
    35   31   33       1
    36   32   33       1
    37   33   35       1
    38   34   35       1
    39   35   36       1
    40    2   37       1
    41    7   38       1
    42    7   39       1
    43    9   40       1
    44   11   41       1
    45   12   42       1
    46   13   43       1
    47   14   44       1
    48   15   45       1
    49   17   46       1
    50   18   47       1
    51   18   48       1
    52   36   57       1
    53   35   56       1
    54   28   49       1
    55   28   50       1
    56   30   51       1
    57   31   52       1
    58   32   53       1
    59   33   54       1
    60   34   55       1
@<TRIPOS>SUBSTRUCTURE
     1 APR504      1 GROUP             4 E     APR     0 **** APR E 504
