@<TRIPOS>MOLECULE
1lqa_NDP_2_ligand
   73    77     1     0     0
SMALL
NO_CHARGES


@<TRIPOS>ATOM
     1 PA          22.5660    42.1510    25.9360 P.3          1 NDP1401   0.0000
     2 O1A         24.0150    41.9670    25.9460 O.co2        1 NDP1401   0.0000
     3 O2A         21.7300    40.9900    26.3800 O.co2        1 NDP1401  -1.0000
     4 O5B         22.1950    43.4200    26.8670 O.3          1 NDP1401   0.0000
     5 C5B         22.8750    44.6610    26.6240 C.3          1 NDP1401   0.0000
     6 C4B         22.5180    45.6880    27.7070 C.3          1 NDP1401   0.0000
     7 O4B         23.1020    45.2720    28.9460 O.3          1 NDP1401   0.0000
     8 C3B         23.1830    47.0340    27.4480 C.3          1 NDP1401   0.0000
     9 O3B         22.3820    47.8230    26.5800 O.3          1 NDP1401   0.0000
    10 C2B         23.3480    47.6290    28.8320 C.3          1 NDP1401   0.0000
    11 O2B         22.0450    48.0720    29.1780 O.3          1 NDP1401   0.0000
    12 C1B         23.6920    46.3880    29.6530 C.3          1 NDP1401   0.0000
    13 N9A         25.1340    46.1130    29.6920 N.pl3        1 NDP1401   0.0000
    14 C8A         25.9440    45.7640    28.6100 C.2          1 NDP1401   0.0000
    15 N7A         27.1900    45.5240    29.0400 N.2          1 NDP1401   0.0000
    16 C5A         27.2000    45.7240    30.3920 C.ar         1 NDP1401   0.0000
    17 C6A         28.2350    45.6080    31.3150 C.ar         1 NDP1401   0.0000
    18 N6A         29.4230    45.0610    31.0040 N.pl3        1 NDP1401   0.0000
    19 N1A         27.9410    45.8850    32.6080 N.ar         1 NDP1401   0.0000
    20 C2A         26.6740    46.2640    32.9850 C.ar         1 NDP1401   0.0000
    21 N3A         25.6040    46.3830    32.1180 N.ar         1 NDP1401   0.0000
    22 C4A         25.9260    46.1100    30.8030 C.ar         1 NDP1401   0.0000
    23 O3          22.1770    42.6410    24.4290 O.3          1 NDP1401   0.0000
    24 PN          20.9310    43.3790    23.7910 P.3          1 NDP1401   0.0000
    25 O1N         21.1070    44.8350    23.9360 O.co2        1 NDP1401   0.0000
    26 O2N         19.6580    42.7470    24.2390 O.co2        1 NDP1401  -1.0000
    27 O5D         21.1400    42.9290    22.2690 O.3          1 NDP1401   0.0000
    28 C5D         22.3430    43.2620    21.6100 C.3          1 NDP1401   0.0000
    29 C4D         22.0840    43.4870    20.1160 C.3          1 NDP1401   0.0000
    30 O4D         21.4880    42.2930    19.5990 O.3          1 NDP1401   0.0000
    31 C3D         21.0530    44.5570    19.7690 C.3          1 NDP1401   0.0000
    32 O3D         21.6070    45.8520    19.7510 O.3          1 NDP1401   0.0000
    33 C2D         20.5850    44.1220    18.3980 C.3          1 NDP1401   0.0000
    34 O2D         21.5700    44.5010    17.4230 O.3          1 NDP1401   0.0000
    35 C1D         20.6000    42.6230    18.5730 C.3          1 NDP1401   0.0000
    36 N1N         19.2620    42.1150    18.9530 N.ar         1 NDP1401   1.0000
    37 C2N         18.5330    41.5180    17.9790 C.ar         1 NDP1401   0.0000
    38 C3N         17.2870    40.9770    18.2360 C.ar         1 NDP1401   0.0000
    39 C7N         16.5240    40.3220    17.1190 C.2          1 NDP1401   0.0000
    40 O7N         15.2170    40.1040    17.3590 O.2          1 NDP1401   0.0000
    41 N7N         17.0990    39.9260    15.9930 N.am         1 NDP1401   0.0000
    42 C4N         16.6580    41.0000    19.6060 C.ar         1 NDP1401   0.0000
    43 C5N         17.5340    41.6610    20.6160 C.ar         1 NDP1401   0.0000
    44 C6N         18.7920    42.1790    20.2600 C.ar         1 NDP1401   0.0000
    45 P2B         21.7470    49.1070    30.3830 P.3          1 NDP1401   0.0000
    46 O1X         20.4590    49.7200    29.9830 O.co2        1 NDP1401   0.0000
    47 O2X         21.6230    48.2360    31.6470 O.co2        1 NDP1401  -1.0000
    48 O3X         22.9540    50.0220    30.5250 O.co2        1 NDP1401  -1.0000
    49 H5B1        22.6022    45.0166    25.7301 H            1 NDP1401   0.0000
    50 H5B2        23.8624    44.5028    26.6327 H            1 NDP1401   0.0000
    51 H4B         21.5268    45.7883    27.7934 H            1 NDP1401   0.0000
    52 H3B         24.0825    46.8898    27.0356 H            1 NDP1401   0.0000
    53 H5          22.2637    47.3453    25.7095 H            1 NDP1401   0.0000
    54 H2B         24.0421    48.3472    28.8800 H            1 NDP1401   0.0000
    55 H1B         23.3190    46.4596    30.5781 H            1 NDP1401   0.0000
    56 H8A         25.6406    45.7025    27.6591 H            1 NDP1401   0.0000
    57 H6A1        30.1407    44.9967    31.6974 H            1 NDP1401   0.0000
    58 H6A2        29.5890    44.7184    30.0793 H            1 NDP1401   0.0000
    59 H2A         26.5161    46.4672    33.9513 H            1 NDP1401   0.0000
    60 H5D1        22.9988    42.5156    21.7227 H            1 NDP1401   0.0000
    61 H5D2        22.7180    44.0984    22.0098 H            1 NDP1401   0.0000
    62 H4D         22.9449    43.6736    19.6427 H            1 NDP1401   0.0000
    63 H3D         20.2921    44.5204    20.4168 H            1 NDP1401   0.0000
    64 H16         21.5340    46.2585    20.6617 H            1 NDP1401   0.0000
    65 H2D         19.6746    44.4715    18.1767 H            1 NDP1401   0.0000
    66 H18         21.2661    44.2159    16.5139 H            1 NDP1401   0.0000
    67 H1D         20.8945    42.1887    17.7217 H            1 NDP1401   0.0000
    68 H2N         18.9052    41.4676    17.0522 H            1 NDP1401   0.0000
    69 H7N1        16.5509    39.4944    15.2766 H            1 NDP1401   0.0000
    70 H7N2        18.0811    40.0588    15.8595 H            1 NDP1401   0.0000
    71 H4N         15.7580    40.6166    19.8134 H            1 NDP1401   0.0000
    72 H5N         17.2214    41.7372    21.5628 H            1 NDP1401   0.0000
    73 H6N         19.3620    42.6034    20.9635 H            1 NDP1401   0.0000
@<TRIPOS>BOND
     1    1    2      ar
     2    1    3      ar
     3    1    4       1
     4    1   23       1
     5    4    5       1
     6    5    6       1
     7    6    7       1
     8    6    8       1
     9    7   12       1
    10    8    9       1
    11    8   10       1
    12   10   11       1
    13   10   12       1
    14   11   45       1
    15   12   13       1
    16   13   14       1
    17   13   22       1
    18   14   15       2
    19   15   16       1
    20   16   17      ar
    21   16   22      ar
    22   17   18       1
    23   17   19      ar
    24   19   20      ar
    25   20   21      ar
    26   21   22      ar
    27   23   24       1
    28   24   25      ar
    29   24   26      ar
    30   24   27       1
    31   27   28       1
    32   28   29       1
    33   29   30       1
    34   29   31       1
    35   30   35       1
    36   31   32       1
    37   31   33       1
    38   33   34       1
    39   33   35       1
    40   35   36       1
    41   36   37      ar
    42   36   44      ar
    43   37   38      ar
    44   38   39       1
    45   38   42      ar
    46   39   40       2
    47   39   41      am
    48   42   43      ar
    49   43   44      ar
    50   45   46      ar
    51   45   47      ar
    52   45   48      ar
    53   43   72       1
    54    5   49       1
    55    5   50       1
    56    6   51       1
    57    8   52       1
    58    9   53       1
    59   10   54       1
    60   12   55       1
    61   14   56       1
    62   18   57       1
    63   18   58       1
    64   20   59       1
    65   44   73       1
    66   28   60       1
    67   28   61       1
    68   29   62       1
    69   31   63       1
    70   32   64       1
    71   33   65       1
    72   34   66       1
    73   35   67       1
    74   37   68       1
    75   41   69       1
    76   41   70       1
    77   42   71       1
@<TRIPOS>SUBSTRUCTURE
     1 NDP1401     1 GROUP             4 B     NDP     0 **** NDP B1401
