@<TRIPOS>MOLECULE
3h6i_DMF_4_ligand
   12    11     1     0     0
SMALL
NO_CHARGES


@<TRIPOS>ATOM
     1 C1          -0.0960   -24.3310    14.9540 C.3          1 DMF58    0.0000
     2 C2          -0.7390   -22.2420    16.2980 C.3          1 DMF58    0.0000
     3 C           -0.7960   -22.2380    13.8170 C.2          1 DMF58    0.0000
     4 O           -0.6700   -22.7090    12.6470 O.2          1 DMF58    0.0000
     5 N           -0.5440   -22.9390    14.9750 N.am         1 DMF58    0.0000
     6 H1          -0.0171   -24.6415    14.0067 H            1 DMF58    0.0000
     7 H2           0.7947   -24.4013    15.4031 H            1 DMF58    0.0000
     8 H3          -0.7593   -24.9020    15.4378 H            1 DMF58    0.0000
     9 H4          -1.0450   -21.3034    16.1384 H            1 DMF58    0.0000
    10 H5          -1.4277   -22.7305    16.8338 H            1 DMF58    0.0000
    11 H6           0.1263   -22.2299    16.7991 H            1 DMF58    0.0000
    12 H7          -1.1002   -21.2895    13.9054 H            1 DMF58    0.0000
@<TRIPOS>BOND
     1    1    5       1
     2    2    5       1
     3    3    4       2
     4    3    5      am
     5    1    6       1
     6    1    7       1
     7    1    8       1
     8    2    9       1
     9    2   10       1
    10    2   11       1
    11    3   12       1
@<TRIPOS>SUBSTRUCTURE
     1 DMF58       1 GROUP             4 2     DMF     0 **** DMF 2  58
