@<TRIPOS>MOLECULE
4r9u_ANP_1_ligand
   44    46     1     0     0
SMALL
NO_CHARGES


@<TRIPOS>ATOM
     1 PG         -27.9830    28.1430    12.8710 P.3          1 ANP301   0.0000
     2 O1G        -26.7370    28.8250    13.3530 O.co2        1 ANP301   0.0000
     3 O2G        -27.7390    27.7320    11.3750 O.co2        1 ANP301  -1.0000
     4 O3G        -29.1800    29.1720    13.0250 O.co2        1 ANP301  -1.0000
     5 PB         -28.9960    27.0070    15.2210 P.3          1 ANP301   0.0000
     6 O1B        -27.8940    26.8100    16.1930 O.co2        1 ANP301   0.0000
     7 O2B        -29.4680    28.4920    15.2670 O.co2        1 ANP301  -1.0000
     8 N3B        -28.3510    26.7050    13.7020 N.3          1 ANP301   0.0000
     9 PA         -31.6720    26.2660    15.6820 P.3          1 ANP301   0.0000
    10 O1A        -31.9750    26.6140    17.0970 O.co2        1 ANP301   0.0000
    11 O2A        -31.9970    27.3310    14.6250 O.co2        1 ANP301  -1.0000
    12 O3A        -30.1250    25.9620    15.5370 O.3          1 ANP301   0.0000
    13 O5'        -32.3370    24.8310    15.4280 O.3          1 ANP301   0.0000
    14 C5'        -31.6610    23.5990    15.8490 C.3          1 ANP301   0.0000
    15 C4'        -32.3620    22.3710    15.3210 C.3          1 ANP301   0.0000
    16 O4'        -33.7870    22.5730    15.3590 O.3          1 ANP301   0.0000
    17 C3'        -32.0060    21.9850    13.8800 C.3          1 ANP301   0.0000
    18 O3'        -31.6180    20.6220    13.7590 O.3          1 ANP301   0.0000
    19 C2'        -33.3040    22.2350    13.0920 C.3          1 ANP301   0.0000
    20 O2'        -33.5090    21.2690    12.0630 O.3          1 ANP301   0.0000
    21 C1'        -34.3760    22.0950    14.1710 C.3          1 ANP301   0.0000
    22 N9         -35.5830    22.8880    13.9270 N.pl3        1 ANP301   0.0000
    23 C8         -35.6550    24.2510    13.8210 C.2          1 ANP301   0.0000
    24 N7         -36.8700    24.7040    13.6270 N.2          1 ANP301   0.0000
    25 C5         -37.6540    23.5650    13.6220 C.ar         1 ANP301   0.0000
    26 C6         -39.0430    23.3600    13.4620 C.ar         1 ANP301   0.0000
    27 N6         -39.9170    24.3480    13.2640 N.pl3        1 ANP301   0.0000
    28 N1         -39.5040    22.0930    13.5090 N.ar         1 ANP301   0.0000
    29 C2         -38.6250    21.1000    13.7010 C.ar         1 ANP301   0.0000
    30 N3         -37.2970    21.1640    13.8660 N.ar         1 ANP301   0.0000
    31 C4         -36.8760    22.4280    13.8150 C.ar         1 ANP301   0.0000
    32 H3B        -27.5133    26.1691    13.8073 H            1 ANP301   0.0000
    33 H5'1       -31.6487    23.5610    16.8482 H            1 ANP301   0.0000
    34 H5'2       -30.7224    23.6100    15.5043 H            1 ANP301   0.0000
    35 H4'        -32.1378    21.6003    15.9174 H            1 ANP301   0.0000
    36 H3'        -31.2784    22.5791    13.5370 H            1 ANP301   0.0000
    37 H6         -32.2395    20.1529    13.1315 H            1 ANP301   0.0000
    38 H2'        -33.3096    23.1594    12.7107 H            1 ANP301   0.0000
    39 H8         -33.0838    21.5886    11.2162 H            1 ANP301   0.0000
    40 H1'        -34.6214    21.1317    14.2799 H            1 ANP301   0.0000
    41 H10        -34.8543    24.8465    13.8856 H            1 ANP301   0.0000
    42 H11        -40.8896    24.1413    13.1575 H            1 ANP301   0.0000
    43 H12        -39.5996    25.2954    13.2221 H            1 ANP301   0.0000
    44 H13        -39.0160    20.1799    13.7245 H            1 ANP301   0.0000
@<TRIPOS>BOND
     1    1    2      ar
     2    1    3      ar
     3    1    4      ar
     4    1    8       1
     5    5    6      ar
     6    5    7      ar
     7    5    8       1
     8    5   12       1
     9    9   10      ar
    10    9   11      ar
    11    9   12       1
    12    9   13       1
    13   13   14       1
    14   14   15       1
    15   15   16       1
    16   15   17       1
    17   16   21       1
    18   17   18       1
    19   17   19       1
    20   19   20       1
    21   19   21       1
    22   21   22       1
    23   22   23       1
    24   22   31       1
    25   23   24       2
    26   24   25       1
    27   25   26      ar
    28   25   31      ar
    29   26   27       1
    30   26   28      ar
    31   28   29      ar
    32   29   30      ar
    33   30   31      ar
    34   29   44       1
    35   27   43       1
    36   27   42       1
    37    8   32       1
    38   23   41       1
    39   14   33       1
    40   14   34       1
    41   15   35       1
    42   17   36       1
    43   18   37       1
    44   19   38       1
    45   20   39       1
    46   21   40       1
@<TRIPOS>SUBSTRUCTURE
     1 ANP301      1 GROUP             4 C     ANP     0 **** ANP C 301
