@<TRIPOS>MOLECULE
2kwi_GNP_1_ligand
   45    47     1     0     0
SMALL
NO_CHARGES


@<TRIPOS>ATOM
     1 PG           1.9090   -10.5440     9.2770 P.3          1 GNP500   0.0000
     2 O1G          3.1260   -11.2860     9.6940 O.co2        1 GNP500   0.0000
     3 O2G          2.2820    -9.3260     8.3200 O.co2        1 GNP500  -1.0000
     4 O3G          1.0690   -10.0770    10.5500 O.co2        1 GNP500  -1.0000
     5 N3B          0.8900   -11.5260     8.3760 N.3          1 GNP500   0.0000
     6 PB          -0.6650   -10.9020     8.2510 P.3          1 GNP500   0.0000
     7 O1B         -1.2240   -10.6990     9.6130 O.co2        1 GNP500   0.0000
     8 O2B         -0.6660    -9.7680     7.2840 O.co2        1 GNP500  -1.0000
     9 O3A         -1.4370   -12.1260     7.5710 O.3          1 GNP500   0.0000
    10 PA          -2.9910   -12.3730     7.8360 P.3          1 GNP500   0.0000
    11 O1A         -3.1490   -13.5960     8.6620 O.co2        1 GNP500   0.0000
    12 O2A         -3.6140   -11.1060     8.2940 O.co2        1 GNP500  -1.0000
    13 O5'         -3.5320   -12.6840     6.3700 O.3          1 GNP500   0.0000
    14 C5'         -3.1420   -13.8630     5.6690 C.3          1 GNP500   0.0000
    15 C4'         -3.4410   -13.7080     4.1960 C.3          1 GNP500   0.0000
    16 O4'         -4.2120   -14.8560     3.7580 O.3          1 GNP500   0.0000
    17 C3'         -4.2700   -12.4790     3.8290 C.3          1 GNP500   0.0000
    18 O3'         -3.5680   -11.6410     2.9210 O.3          1 GNP500   0.0000
    19 C2'         -5.5570   -13.0230     3.2050 C.3          1 GNP500   0.0000
    20 O2'         -5.9290   -12.2920     2.0530 O.3          1 GNP500   0.0000
    21 C1'         -5.1400   -14.4280     2.7880 C.3          1 GNP500   0.0000
    22 N9          -6.2470   -15.3840     2.7380 N.pl3        1 GNP500   0.0000
    23 C8          -6.2740   -16.6420     3.2870 C.2          1 GNP500   0.0000
    24 N7          -7.3950   -17.2740     3.0790 N.2          1 GNP500   0.0000
    25 C5          -8.1630   -16.3750     2.3490 C.2          1 GNP500   0.0000
    26 C6          -9.4780   -16.5040     1.8350 C.2          1 GNP500   0.0000
    27 O6         -10.2510   -17.4640     1.9340 O.2          1 GNP500   0.0000
    28 N1          -9.8830   -15.3600     1.1530 N.pl3        1 GNP500   0.0000
    29 C2          -9.1080   -14.2360     0.9920 C.2          1 GNP500   0.0000
    30 N2          -9.6780   -13.2160     0.3300 N.pl3        1 GNP500   0.0000
    31 N3          -7.8790   -14.1020     1.4620 N.2          1 GNP500   0.0000
    32 C4          -7.4700   -15.2040     2.1290 C.2          1 GNP500   0.0000
    33 H3B          1.2705   -11.6242     7.4565 H            1 GNP500   0.0000
    34 H5'1        -3.6487   -14.6461     6.0296 H            1 GNP500   0.0000
    35 H5'2        -2.1615   -14.0142     5.7942 H            1 GNP500   0.0000
    36 H4'         -2.5790   -13.6823     3.6897 H            1 GNP500   0.0000
    37 H3'         -4.4909   -11.9644     4.6575 H            1 GNP500   0.0000
    38 H6          -2.5845   -11.7277     3.0796 H            1 GNP500   0.0000
    39 H2'         -6.3006   -13.0492     3.8731 H            1 GNP500   0.0000
    40 H8          -6.7714   -12.6743     1.6732 H            1 GNP500   0.0000
    41 H1'         -4.6929   -14.3904     1.8943 H            1 GNP500   0.0000
    42 H10         -5.5086   -17.0351     3.7966 H            1 GNP500   0.0000
    43 H11        -10.7996   -15.3555     0.7532 H            1 GNP500   0.0000
    44 H12         -9.1669   -12.3698     0.1795 H            1 GNP500   0.0000
    45 H13        -10.6135   -13.3027    -0.0124 H            1 GNP500   0.0000
@<TRIPOS>BOND
     1    1    2      ar
     2    1    3      ar
     3    1    4      ar
     4    1    5       1
     5    5    6       1
     6    6    7      ar
     7    6    8      ar
     8    6    9       1
     9    9   10       1
    10   10   11      ar
    11   10   12      ar
    12   10   13       1
    13   13   14       1
    14   14   15       1
    15   15   16       1
    16   15   17       1
    17   16   21       1
    18   17   18       1
    19   17   19       1
    20   19   20       1
    21   19   21       1
    22   21   22       1
    23   22   23       1
    24   22   32       1
    25   23   24       2
    26   24   25       1
    27   25   26       1
    28   25   32       2
    29   26   27       2
    30   26   28       1
    31   28   29       1
    32   29   30       1
    33   29   31       2
    34   31   32       1
    35   30   45       1
    36   30   44       1
    37    5   33       1
    38   28   43       1
    39   23   42       1
    40   14   34       1
    41   14   35       1
    42   15   36       1
    43   17   37       1
    44   18   38       1
    45   19   39       1
    46   20   40       1
    47   21   41       1
@<TRIPOS>SUBSTRUCTURE
     1 GNP500      1 GROUP             4 A     GNP     0 **** GNP A 500
