@<TRIPOS>MOLECULE
3m30_COM_2_ligand
   11    10     1     0     0
SMALL
NO_CHARGES


@<TRIPOS>ATOM
     1 C1          31.8560    38.9330   -57.9170 C.3          1 COM554   0.0000
     2 C2          30.4900    38.2330   -57.9540 C.3          1 COM554   0.0000
     3 S1          32.9450    38.1890   -56.6910 S.3          1 COM554  -1.0000
     4 S2          29.5500    38.6570   -59.3930 S.o2         1 COM554   0.0000
     5 O1S         29.6090    40.0930   -59.5240 O.co2        1 COM554   0.0000
     6 O2S         30.0660    37.9020   -60.5570 O.co2        1 COM554   0.0000
     7 O3S         28.1610    38.1230   -59.0760 O.co2        1 COM554  -1.0000
     8 H1          31.7210    39.8973   -57.6893 H            1 COM554   0.0000
     9 H2          32.2832    38.8599   -58.8182 H            1 COM554   0.0000
    10 H3          29.9710    38.4995   -57.1419 H            1 COM554   0.0000
    11 H4          30.6362    37.2438   -57.9464 H            1 COM554   0.0000
@<TRIPOS>BOND
     1    1    2       1
     2    1    3       1
     3    2    4       1
     4    4    5      ar
     5    4    6      ar
     6    4    7      ar
     7    1    8       1
     8    1    9       1
     9    2   10       1
    10    2   11       1
@<TRIPOS>SUBSTRUCTURE
     1 COM554      1 GROUP             4 D     COM     0 **** COM D 554
