@<TRIPOS>MOLECULE
3b1d_PLS_2_ligand
   34    34     1     0     0
SMALL
NO_CHARGES


@<TRIPOS>ATOM
     1 N            6.1240    62.8590   119.1340 N.pl3        1 PLS501   0.0000
     2 CA           5.5920    61.7840   119.9720 C.3          1 PLS501   0.0000
     3 CB           6.0260    60.3930   119.4930 C.3          1 PLS501   0.0000
     4 OG           7.3810    60.0980   119.8200 O.3          1 PLS501   0.0000
     5 C            5.8230    62.1280   121.4220 C.2          1 PLS501   0.0000
     6 O            5.5100    61.2400   122.2340 O.co2        1 PLS501   0.0000
     7 OXT          6.1750    63.3040   121.7120 O.co2        1 PLS501  -1.0000
     8 N1           7.9290    65.9110   115.6950 N.2          1 PLS501   0.0000
     9 C2           7.3940    66.2750   116.8670 C.2          1 PLS501   0.0000
    10 C2A          7.6130    67.7120   117.3840 C.3          1 PLS501   0.0000
    11 C3           6.6540    65.3740   117.6110 C.2          1 PLS501   0.0000
    12 O3           6.0870    65.7210   118.7950 O.2          1 PLS501   0.0000
    13 C4           6.4630    64.0850   117.1490 C.2          1 PLS501   0.0000
    14 C4A          5.6500    63.0670   117.9270 C.2          1 PLS501   0.0000
    15 C5           7.0140    63.7420   115.9210 C.2          1 PLS501   0.0000
    16 C6           7.7500    64.6870   115.1990 C.2          1 PLS501   0.0000
    17 C5A          6.7990    62.3220   115.4070 C.3          1 PLS501   0.0000
    18 O4P          7.1460    62.2400   114.1010 O.3          1 PLS501   0.0000
    19 P            7.0250    60.9150   113.1650 P.3          1 PLS501   0.0000
    20 O1P          8.3490    60.4560   112.8460 O.co2        1 PLS501   0.0000
    21 O2P          6.2670    61.3830   112.0370 O.co2        1 PLS501  -1.0000
    22 O3P          6.2130    60.0070   113.9360 O.co2        1 PLS501  -1.0000
    23 HA           4.6005    61.8126   119.8455 H            1 PLS501   0.0000
    24 HB1          5.9195    60.3489   118.4997 H            1 PLS501   0.0000
    25 HB2          5.4368    59.7084   119.9222 H            1 PLS501   0.0000
    26 HG           7.9820    60.7717   119.3899 H            1 PLS501   0.0000
    27 H2A1         7.1529    67.8231   118.2649 H            1 PLS501   0.0000
    28 H2A2         8.5924    67.8804   117.4959 H            1 PLS501   0.0000
    29 H2A3         7.2357    68.3640   116.7263 H            1 PLS501   0.0000
    30 H4A          4.8421    62.6052   117.5609 H            1 PLS501   0.0000
    31 H9           8.1416    64.4445   114.3114 H            1 PLS501   0.0000
    32 H5A1         5.8350    62.0763   115.5087 H            1 PLS501   0.0000
    33 H5A2         7.3621    61.6894   115.9387 H            1 PLS501   0.0000
    34 H12          6.8570    63.4421   119.4844 H            1 PLS501   0.0000
@<TRIPOS>BOND
     1    1    2       1
     2    1   14       1
     3    2    3       1
     4    2    5       1
     5    3    4       1
     6    5    6      ar
     7    5    7      ar
     8    8    9       2
     9    8   16       1
    10    9   10       1
    11    9   11       1
    12   11   12       2
    13   11   13       1
    14   13   14       2
    15   13   15       1
    16   15   16       2
    17   15   17       1
    18   17   18       1
    19   18   19       1
    20   19   20      ar
    21   19   21      ar
    22   19   22      ar
    23    2   23       1
    24    3   24       1
    25    3   25       1
    26    4   26       1
    27    1   34       1
    28   10   27       1
    29   10   28       1
    30   10   29       1
    31   17   33       1
    32   14   30       1
    33   16   31       1
    34   17   32       1
@<TRIPOS>SUBSTRUCTURE
     1 PLS501      1 GROUP             4 D     PLS     0 **** PLS D 501
