@<TRIPOS>MOLECULE
2z3l_PHE_ARG_TYR_LEU_GLY_1_ligand
   94    95     5     0     0
SMALL
NO_CHARGES


@<TRIPOS>ATOM
     1 N          -44.3520   -44.9470    17.2670 N.4          1 PHE301   1.0000
     2 CA         -44.4870   -44.4390    18.6660 C.3          1 PHE301   0.0000
     3 C          -44.0740   -45.5360    19.6380 C.2          1 PHE301   0.0000
     4 O          -44.8900   -46.0760    20.3890 O.2          1 PHE301   0.0000
     5 CB         -45.9320   -44.0050    18.9330 C.3          1 PHE301   0.0000
     6 CG         -46.4780   -43.0630    17.8930 C.ar         1 PHE301   0.0000
     7 CD1        -46.9880   -43.5530    16.6910 C.ar         1 PHE301   0.0000
     8 CD2        -46.4530   -41.6830    18.1030 C.ar         1 PHE301   0.0000
     9 CE1        -47.4630   -42.6800    15.7180 C.ar         1 PHE301   0.0000
    10 CE2        -46.9230   -40.8020    17.1400 C.ar         1 PHE301   0.0000
    11 CZ         -47.4290   -41.2950    15.9450 C.ar         1 PHE301   0.0000
    12 H1         -44.1151   -44.1895    16.6587 H            1 PHE301   0.0000
    13 H2         -43.6321   -45.6402    17.2321 H            1 PHE301   0.0000
    14 HA         -43.8824   -43.6517    18.7868 H            1 PHE301   0.0000
    15 HB1        -45.9664   -43.5490    19.8223 H            1 PHE301   0.0000
    16 HB2        -46.5089   -44.8215    18.9546 H            1 PHE301   0.0000
    17 HD1        -47.0123   -44.5392    16.5275 H            1 PHE301   0.0000
    18 HD2        -46.0900   -41.3234    18.9626 H            1 PHE301   0.0000
    19 HE1        -47.8279   -43.0381    14.8586 H            1 PHE301   0.0000
    20 HE2        -46.8974   -39.8162    17.3059 H            1 PHE301   0.0000
    21 HZ         -47.7687   -40.6646    15.2470 H            1 PHE301   0.0000
    22 N          -42.7810   -45.8390    19.6000 N.am         2 ARG302   0.0000
    23 CA         -42.1700   -46.8720    20.4130 C.3          2 ARG302   0.0000
    24 C          -42.4950   -46.8050    21.9060 C.2          2 ARG302   0.0000
    25 O          -42.5720   -47.8430    22.5740 O.2          2 ARG302   0.0000
    26 CB         -40.6530   -46.8300    20.2080 C.3          2 ARG302   0.0000
    27 CG         -39.9020   -45.9450    21.1870 C.3          2 ARG302   0.0000
    28 CD         -38.5340   -45.5680    20.6460 C.3          2 ARG302   0.0000
    29 NE         -38.6220   -44.3380    19.8650 N.pl3        2 ARG302   1.0000
    30 CZ         -38.0800   -43.1810    20.2300 C.cat        2 ARG302   0.0000
    31 NH1        -37.3970   -43.0910    21.3600 N.pl3        2 ARG302   0.0000
    32 NH2        -38.2450   -42.1080    19.4790 N.pl3        2 ARG302   0.0000
    33 H11        -42.1951   -45.3244    18.9740 H            2 ARG302   0.0000
    34 H12        -42.4954   -47.7544    20.0733 H            2 ARG302   0.0000
    35 H13        -40.4733   -46.4936    19.2836 H            2 ARG302   0.0000
    36 H14        -40.3011   -47.7617    20.2979 H            2 ARG302   0.0000
    37 HG1        -39.7875   -46.4368    22.0501 H            2 ARG302   0.0000
    38 HG2        -40.4312   -45.1115    21.3459 H            2 ARG302   0.0000
    39 H17        -38.1946   -46.3060    20.0628 H            2 ARG302   0.0000
    40 H18        -37.9034   -45.4299    21.4097 H            2 ARG302   0.0000
    41 HE         -39.1223   -44.3680    18.9997 H            2 ARG302   0.0000
    42 HH11       -36.9909   -42.2182    21.6306 H            2 ARG302   0.0000
    43 HH12       -37.2870   -43.8958    21.9432 H            2 ARG302   0.0000
    44 HH21       -37.8369   -41.2375    19.7542 H            2 ARG302   0.0000
    45 HH22       -38.7781   -42.1656    18.6349 H            2 ARG302   0.0000
    46 N          -42.6960   -45.5980    22.4310 N.am         3 TYR303   0.0000
    47 CA         -42.9810   -45.4410    23.8520 C.3          3 TYR303   0.0000
    48 C          -44.2980   -46.0360    24.3400 C.2          3 TYR303   0.0000
    49 O          -44.6160   -45.9800    25.5310 O.2          3 TYR303   0.0000
    50 CB         -42.8650   -43.9690    24.2400 C.3          3 TYR303   0.0000
    51 CG         -41.4240   -43.5140    24.2660 C.ar         3 TYR303   0.0000
    52 CD1        -40.9020   -42.7140    23.2510 C.ar         3 TYR303   0.0000
    53 CD2        -40.5530   -43.9560    25.2770 C.ar         3 TYR303   0.0000
    54 CE1        -39.5470   -42.3650    23.2390 C.ar         3 TYR303   0.0000
    55 CE2        -39.1970   -43.6180    25.2720 C.ar         3 TYR303   0.0000
    56 CZ         -38.7010   -42.8250    24.2500 C.ar         3 TYR303   0.0000
    57 OH         -37.3610   -42.5080    24.2300 O.3          3 TYR303   0.0000
    58 H24        -42.6509   -44.7899    21.8437 H            3 TYR303   0.0000
    59 H25        -42.2538   -45.9217    24.3420 H            3 TYR303   0.0000
    60 H26        -43.2627   -43.8403    25.1484 H            3 TYR303   0.0000
    61 H27        -43.3679   -43.4172    23.5747 H            3 TYR303   0.0000
    62 H28        -41.5031   -42.3855    22.5225 H            3 TYR303   0.0000
    63 H29        -40.9119   -44.5253    26.0167 H            3 TYR303   0.0000
    64 H30        -39.1852   -41.7871    22.5075 H            3 TYR303   0.0000
    65 H31        -38.5917   -43.9448    25.9978 H            3 TYR303   0.0000
    66 HH         -36.7580   -42.8392    24.9557 H            3 TYR303   0.0000
    67 N          -45.0400   -46.6410    23.4190 N.am         4 LEU304   0.0000
    68 CA         -46.3130   -47.2740    23.7440 C.3          4 LEU304   0.0000
    69 C          -46.1550   -48.7930    23.9310 C.2          4 LEU304   0.0000
    70 O          -47.1270   -49.5350    23.8140 O.2          4 LEU304   0.0000
    71 CB         -47.3250   -46.9990    22.6300 C.3          4 LEU304   0.0000
    72 CG         -47.6000   -45.5340    22.2890 C.3          4 LEU304   0.0000
    73 CD1        -48.3800   -45.4650    20.9890 C.3          4 LEU304   0.0000
    74 CD2        -48.3550   -44.8620    23.4220 C.3          4 LEU304   0.0000
    75 H33        -44.7155   -46.6631    22.4734 H            4 LEU304   0.0000
    76 H34        -46.6587   -46.8803    24.5957 H            4 LEU304   0.0000
    77 H35        -48.1934   -47.4137    22.9020 H            4 LEU304   0.0000
    78 H36        -46.9886   -47.4440    21.8001 H            4 LEU304   0.0000
    79 HG         -46.7259   -45.0646    22.1636 H            4 LEU304   0.0000
    80 HD11       -48.5631   -44.5088    20.7605 H            4 LEU304   0.0000
    81 HD12       -47.8451   -45.8863    20.2566 H            4 LEU304   0.0000
    82 HD13       -49.2458   -45.9544    21.0934 H            4 LEU304   0.0000
    83 HD21       -48.5281   -43.9057    23.1862 H            4 LEU304   0.0000
    84 HD22       -49.2255   -45.3322    23.5675 H            4 LEU304   0.0000
    85 HD23       -47.8087   -44.9055    24.2585 H            4 LEU304   0.0000
    86 N          -44.9350   -49.2480    24.2120 N.am         5 GLY305   0.0000
    87 CA         -44.6960   -50.6720    24.4140 C.3          5 GLY305   0.0000
    88 C          -43.2570   -50.9910    24.8010 C.2          5 GLY305   0.0000
    89 O          -42.7460   -52.0940    24.4490 O.co2        5 GLY305   0.0000
    90 OXT        -42.6360   -50.1540    25.4900 O.co2        5 GLY305  -1.0000
    91 H44        -44.1731   -48.6045    24.2854 H            5 GLY305   0.0000
    92 HA1        -44.9108   -51.1538    23.5645 H            5 GLY305   0.0000
    93 HA2        -45.3000   -50.9953    25.1424 H            5 GLY305   0.0000
    94 H47        -45.2185   -45.3512    16.9741 H            5 GLY305   0.0000
@<TRIPOS>BOND
     1    1    2       1
     2    2    5       1
     3    2    3       1
     4    5    6       1
     5    6    7      ar
     6    6    8      ar
     7    7    9      ar
     8    9   11      ar
     9   11   10      ar
    10   10    8      ar
    11    3    4       2
    12    1   12       1
    13    1   13       1
    14    2   14       1
    15    3   22      am
    16    5   15       1
    17    5   16       1
    18    7   17       1
    19    8   18       1
    20    9   19       1
    21   10   20       1
    22   11   21       1
    23   22   23       1
    24   23   26       1
    25   23   24       1
    26   26   27       1
    27   27   28       1
    28   28   29       1
    29   29   30      ar
    30   30   31      ar
    31   30   32      ar
    32   24   25       2
    33   32   45       1
    34   22   33       1
    35   23   34       1
    36   24   46      am
    37   26   35       1
    38   26   36       1
    39   27   37       1
    40   27   38       1
    41   28   39       1
    42   28   40       1
    43   29   41       1
    44   31   42       1
    45   31   43       1
    46   32   44       1
    47   46   47       1
    48   47   50       1
    49   47   48       1
    50   50   51       1
    51   51   52      ar
    52   51   53      ar
    53   52   54      ar
    54   54   56      ar
    55   56   57       1
    56   56   55      ar
    57   55   53      ar
    58   48   49       2
    59   57   66       1
    60   46   58       1
    61   47   59       1
    62   48   67      am
    63   50   60       1
    64   50   61       1
    65   52   62       1
    66   53   63       1
    67   54   64       1
    68   55   65       1
    69   67   68       1
    70   68   71       1
    71   68   69       1
    72   71   72       1
    73   72   73       1
    74   72   74       1
    75   69   70       2
    76   74   85       1
    77   67   75       1
    78   68   76       1
    79   69   86      am
    80   71   77       1
    81   71   78       1
    82   72   79       1
    83   73   80       1
    84   73   81       1
    85   73   82       1
    86   74   83       1
    87   74   84       1
    88   86   87       1
    89   87   88       1
    90   88   89      ar
    91   88   90      ar
    92   87   93       1
    93   86   91       1
    94   87   92       1
    95    1   94       1
@<TRIPOS>SUBSTRUCTURE
     1 PHE301      1 RESIDUE           4 C     PHE     0 **** PHE C 301
     2 ARG302     22 RESIDUE           4 C     ARG     0 **** ARG C 302
     3 TYR303     46 RESIDUE           4 C     TYR     0 **** TYR C 303
     4 LEU304     67 RESIDUE           4 C     LEU     0 **** LEU C 304
     5 GLY305     86 RESIDUE           4 C     GLY     0 **** GLY C 305
