@<TRIPOS>MOLECULE
3d7k_D7K_2_ligand
   65    67     1     0     0
SMALL
NO_CHARGES


@<TRIPOS>ATOM
     1 PA         -69.0780    19.8470    -7.3140 P.3          1 D7K572   0.0000
     2 O1A        -69.1720    21.3390    -7.5810 O.co2        1 D7K572   0.0000
     3 O2A        -67.6260    19.3930    -7.2400 O.co2        1 D7K572  -1.0000
     4 O1B        -71.5170    18.7090   -10.1820 O.co2        1 D7K572   0.0000
     5 PB         -71.5400    19.0810    -8.6970 P.3          1 D7K572   0.0000
     6 O2B        -71.8440    20.5090    -8.4550 O.co2        1 D7K572  -1.0000
     7 O3B        -72.3080    18.0980    -7.8240 O.co2        1 D7K572  -1.0000
     8 O3A        -69.9490    19.0150    -8.3480 O.3          1 D7K572   0.0000
     9 O01        -69.8610    19.5760    -5.9120 O.3          1 D7K572   0.0000
    10 C01        -69.6800    18.4410    -5.0560 C.3          1 D7K572   0.0000
    11 C05        -70.9290    18.3220    -4.1880 C.3          1 D7K572   0.0000
    12 C04        -70.8360    17.1460    -3.2120 C.2          1 D7K572   0.0000
    13 C03        -70.3290    17.1500    -1.9580 C.2          1 D7K572   0.0000
    14 CM4        -69.7160    18.4140    -1.3930 C.3          1 D7K572   0.0000
    15 S1         -71.4890    15.7000    -3.6200 S.3          1 D7K572   0.0000
    16 C02        -70.8570    14.8440    -2.2090 C.3          1 D7K572   0.0000
    17 N3         -70.4420    15.9350    -1.3130 N.pl3        1 D7K572   0.0000
    18 C7,        -70.0990    15.4790     0.0550 C.3          1 D7K572   0.0000
    19 C5,        -68.5760    15.4220     0.1550 C.ar         1 D7K572   0.0000
    20 C6,        -67.8590    16.3480     0.9250 C.ar         1 D7K572   0.0000
    21 C4,        -67.8550    14.4460    -0.5180 C.ar         1 D7K572   0.0000
    22 N4,        -68.5150    13.4920    -1.2480 N.pl3        1 D7K572   0.0000
    23 N3,        -66.4700    14.4420    -0.4160 N.ar         1 D7K572   0.0000
    24 C2,        -65.7970    15.3640     0.3380 C.ar         1 D7K572   0.0000
    25 N1,        -66.4930    16.2870     1.0210 N.ar         1 D7K572   1.0000
    26 CM2        -64.3030    15.3150     0.4640 C.3          1 D7K572   0.0000
    27 O12        -73.0060    14.4060     0.5310 O.co2        1 D7K572   0.0000
    28 P8         -73.2860    13.8080    -0.8190 P.3          1 D7K572   0.0000
    29 O11        -74.3870    14.4160    -1.7140 O.co2        1 D7K572  -1.0000
    30 O9         -73.6820    12.2320    -0.4780 O.3          1 D7K572   0.0000
    31 C10        -74.8090    11.5240    -1.0060 C.3          1 D7K572   0.0000
    32 C7         -71.7110    13.6370    -1.7380 C.3          1 D7K572   0.0000
    33 O7         -70.9580    12.9800    -0.7070 O.3          1 D7K572   0.0000
    34 C2         -71.9130    12.7840    -3.0190 C.ar         1 D7K572   0.0000
    35 C3         -73.1670    12.7920    -3.7260 C.ar         1 D7K572   0.0000
    36 C4         -73.3920    12.0130    -4.8670 C.ar         1 D7K572   0.0000
    37 C5         -72.3360    11.2290    -5.3830 C.ar         1 D7K572   0.0000
    38 C6         -71.0790    11.2000    -4.6960 C.ar         1 D7K572   0.0000
    39 C1         -70.8660    11.9740    -3.5290 C.ar         1 D7K572   0.0000
    40 H1         -68.8739    18.5728    -4.4791 H            1 D7K572   0.0000
    41 H2         -69.5651    17.6133    -5.6052 H            1 D7K572   0.0000
    42 H3         -71.7231    18.1881    -4.7808 H            1 D7K572   0.0000
    43 H4         -71.0416    19.1674    -3.6658 H            1 D7K572   0.0000
    44 HM41       -69.3934    18.2409    -0.4624 H            1 D7K572   0.0000
    45 HM42       -68.9462    18.6959    -1.9656 H            1 D7K572   0.0000
    46 HM43       -70.4036    19.1400    -1.3778 H            1 D7K572   0.0000
    47 H8         -69.9995    14.4376    -2.5245 H            1 D7K572   0.0000
    48 H7,1       -70.4856    14.5714     0.2188 H            1 D7K572   0.0000
    49 H7,2       -70.4611    16.1223     0.7296 H            1 D7K572   0.0000
    50 H6,        -68.3534    17.0669     1.4136 H            1 D7K572   0.0000
    51 H4,1       -67.9977    12.7876    -1.7339 H            1 D7K572   0.0000
    52 H4,2       -69.5139    13.5004    -1.2947 H            1 D7K572   0.0000
    53 HM21       -63.9932    16.0634     1.0504 H            1 D7K572   0.0000
    54 HM22       -64.0310    14.4412     0.8671 H            1 D7K572   0.0000
    55 HM23       -63.8889    15.4077    -0.4415 H            1 D7K572   0.0000
    56 H17        -74.8175    10.5924    -0.6426 H            1 D7K572   0.0000
    57 H18        -75.6514    11.9930    -0.7407 H            1 D7K572   0.0000
    58 H19        -74.7451    11.4921    -2.0034 H            1 D7K572   0.0000
    59 H20        -71.1731    12.0034    -0.7080 H            1 D7K572   0.0000
    60 H21        -73.9054    13.3763    -3.3892 H            1 D7K572   0.0000
    61 H22        -74.2881    12.0114    -5.3109 H            1 D7K572   0.0000
    62 H23        -72.4648    10.6986    -6.2209 H            1 D7K572   0.0000
    63 H24        -70.3402    10.6241    -5.0460 H            1 D7K572   0.0000
    64 H25        -69.9800    11.9495    -3.0659 H            1 D7K572   0.0000
    65 H1,        -66.0092    16.9375     1.6065 H            1 D7K572   0.0000
@<TRIPOS>BOND
     1    1    2      ar
     2    1    3      ar
     3    1    8       1
     4    1    9       1
     5    4    5      ar
     6    5    6      ar
     7    5    7      ar
     8    5    8       1
     9    9   10       1
    10   10   11       1
    11   11   12       1
    12   12   13       2
    13   12   15       1
    14   13   14       1
    15   13   17       1
    16   15   16       1
    17   16   17       1
    18   16   32       1
    19   17   18       1
    20   18   19       1
    21   19   20      ar
    22   19   21      ar
    23   20   25      ar
    24   21   22       1
    25   21   23      ar
    26   23   24      ar
    27   24   25      ar
    28   24   26       1
    29   27   28      ar
    30   28   29      ar
    31   28   30       1
    32   28   32       1
    33   30   31       1
    34   32   33       1
    35   32   34       1
    36   34   35      ar
    37   34   39      ar
    38   35   36      ar
    39   36   37      ar
    40   37   38      ar
    41   38   39      ar
    42   39   64       1
    43   38   63       1
    44   37   62       1
    45   10   40       1
    46   10   41       1
    47   11   42       1
    48   11   43       1
    49   14   44       1
    50   14   45       1
    51   14   46       1
    52   16   47       1
    53   18   48       1
    54   18   49       1
    55   20   50       1
    56   22   51       1
    57   22   52       1
    58   26   53       1
    59   26   54       1
    60   26   55       1
    61   36   61       1
    62   31   56       1
    63   31   57       1
    64   31   58       1
    65   33   59       1
    66   35   60       1
    67   25   65       1
@<TRIPOS>SUBSTRUCTURE
     1 D7K572      1 GROUP             4 B     D7K     0 **** D7K B 572
