@<TRIPOS>MOLECULE
1mg5_NAI_2_ligand
   71    75     1     0     0
SMALL
NO_CHARGES


@<TRIPOS>ATOM
     1 PA          23.5480    12.3860     8.6910 P.3          1 NAI851   0.0000
     2 O1A         23.1890    13.2980     9.7840 O.co2        1 NAI851   0.0000
     3 O2A         24.4620    12.9660     7.6480 O.co2        1 NAI851  -1.0000
     4 O5B         22.2700    11.9070     7.8640 O.3          1 NAI851   0.0000
     5 C5B         21.0020    11.6400     8.5810 C.3          1 NAI851   0.0000
     6 C4B         19.9810    11.4250     7.4630 C.3          1 NAI851   0.0000
     7 O4B         18.6690    11.2640     8.0920 O.3          1 NAI851   0.0000
     8 C3B         19.8450    12.6680     6.5460 C.3          1 NAI851   0.0000
     9 O3B         19.3710    12.1980     5.2820 O.3          1 NAI851   0.0000
    10 C2B         18.7440    13.4200     7.3150 C.3          1 NAI851   0.0000
    11 O2B         18.1090    14.4720     6.6220 O.3          1 NAI851   0.0000
    12 C1B         17.7940    12.2210     7.5800 C.3          1 NAI851   0.0000
    13 N9A         16.7970    12.5770     8.6060 N.pl3        1 NAI851   0.0000
    14 C8A         16.9690    12.9790     9.8930 C.2          1 NAI851   0.0000
    15 N7A         15.8160    13.2900    10.4890 N.2          1 NAI851   0.0000
    16 C5A         14.8630    13.0750     9.5230 C.ar         1 NAI851   0.0000
    17 C6A         13.4670    13.2390     9.5130 C.ar         1 NAI851   0.0000
    18 N6A         12.7420    13.6340    10.5730 N.pl3        1 NAI851   0.0000
    19 N1A         12.8100    12.9590     8.3690 N.ar         1 NAI851   0.0000
    20 C2A         13.5240    12.5520     7.2690 C.ar         1 NAI851   0.0000
    21 N3A         14.8140    12.3870     7.1980 N.ar         1 NAI851   0.0000
    22 C4A         15.4480    12.6700     8.3400 C.ar         1 NAI851   0.0000
    23 O3          24.1050    11.0280     9.2750 O.3          1 NAI851   0.0000
    24 PN          24.6530     9.6790     8.6290 P.3          1 NAI851   0.0000
    25 O1N         25.9120     9.4180     9.3250 O.co2        1 NAI851   0.0000
    26 O2N         24.5320     9.7550     7.1680 O.co2        1 NAI851  -1.0000
    27 O5D         23.5280     8.6480     9.1750 O.3          1 NAI851   0.0000
    28 C5D         22.5880     8.0870     8.2540 C.3          1 NAI851   0.0000
    29 C4D         22.0190     6.8380     8.9090 C.3          1 NAI851   0.0000
    30 O4D         23.1340     5.9800     9.3080 O.3          1 NAI851   0.0000
    31 C3D         21.2310     7.0930    10.2090 C.3          1 NAI851   0.0000
    32 O3D         20.1630     6.1680    10.3400 O.3          1 NAI851   0.0000
    33 C2D         22.3190     6.8830    11.2730 C.3          1 NAI851   0.0000
    34 O2D         21.6750     6.5920    12.5270 O.3          1 NAI851   0.0000
    35 C1D         23.0010     5.6480    10.6820 C.3          1 NAI851   0.0000
    36 N1N         24.3070     5.3130    11.2560 N.pl3        1 NAI851   0.0000
    37 C2N         25.3240     6.2170    11.1010 C.2          1 NAI851   0.0000
    38 C3N         26.5490     5.9020    11.6310 C.2          1 NAI851   0.0000
    39 C7N         27.8140     6.8090    11.6200 C.2          1 NAI851   0.0000
    40 O7N         28.7830     6.5110    12.3230 O.2          1 NAI851   0.0000
    41 N7N         27.7950     7.9020    10.8630 N.am         1 NAI851   0.0000
    42 C4N         26.8750     4.6000    12.1030 C.3          1 NAI851   0.0000
    43 C5N         25.7620     3.7500    12.2180 C.2          1 NAI851   0.0000
    44 C6N         24.5490     3.9800    11.6210 C.2          1 NAI851   0.0000
    45 H5B1        20.7453    12.4203     9.1512 H            1 NAI851   0.0000
    46 H5B2        21.0818    10.8224     9.1512 H            1 NAI851   0.0000
    47 H4B         20.2145    10.6151     6.9248 H            1 NAI851   0.0000
    48 H3B         20.6940    13.1912     6.4724 H            1 NAI851   0.0000
    49 H5          18.8225    12.9112     4.8455 H            1 NAI851   0.0000
    50 H2B         19.1093    13.7591     8.1819 H            1 NAI851   0.0000
    51 H7          17.6732    14.1124     5.7969 H            1 NAI851   0.0000
    52 H1B         17.3572    11.9056     6.7375 H            1 NAI851   0.0000
    53 H8A         17.8602    13.0354    10.3432 H            1 NAI851   0.0000
    54 H6A1        11.7498    13.7293    10.4926 H            1 NAI851   0.0000
    55 H6A2        13.1946    13.8327    11.4423 H            1 NAI851   0.0000
    56 H2A         13.0005    12.3631     6.4382 H            1 NAI851   0.0000
    57 H5D1        23.0462     7.8480     7.3979 H            1 NAI851   0.0000
    58 H5D2        21.8555     8.7420     8.0685 H            1 NAI851   0.0000
    59 H4D         21.4390     6.3515     8.2556 H            1 NAI851   0.0000
    60 H3D         20.8889     8.0323    10.2353 H            1 NAI851   0.0000
    61 H17         19.2955     6.6639    10.3797 H            1 NAI851   0.0000
    62 H2D         22.9403     7.6638    11.3386 H            1 NAI851   0.0000
    63 H19         22.3688     6.4519    13.2334 H            1 NAI851   0.0000
    64 H1D         22.3908     4.8609    10.7723 H            1 NAI851   0.0000
    65 H2N         25.1780     7.0796    10.6166 H            1 NAI851   0.0000
    66 H7N1        28.5925     8.5047    10.8349 H            1 NAI851   0.0000
    67 H7N2        26.9832     8.1213    10.3218 H            1 NAI851   0.0000
    68 H4N1        27.3009     4.6873    13.0036 H            1 NAI851   0.0000
    69 H4N2        27.5249     4.1859    11.4657 H            1 NAI851   0.0000
    70 H5N         25.8609     2.9231    12.7715 H            1 NAI851   0.0000
    71 H6N         23.8849     3.2504    11.4576 H            1 NAI851   0.0000
@<TRIPOS>BOND
     1    1    2      ar
     2    1    3      ar
     3    1    4       1
     4    1   23       1
     5    4    5       1
     6    5    6       1
     7    6    7       1
     8    6    8       1
     9    7   12       1
    10    8    9       1
    11    8   10       1
    12   10   11       1
    13   10   12       1
    14   12   13       1
    15   13   14       1
    16   13   22       1
    17   14   15       2
    18   15   16       1
    19   16   17      ar
    20   16   22      ar
    21   17   18       1
    22   17   19      ar
    23   19   20      ar
    24   20   21      ar
    25   21   22      ar
    26   23   24       1
    27   24   25      ar
    28   24   26      ar
    29   24   27       1
    30   27   28       1
    31   28   29       1
    32   29   30       1
    33   29   31       1
    34   30   35       1
    35   31   32       1
    36   31   33       1
    37   33   34       1
    38   33   35       1
    39   35   36       1
    40   36   37       1
    41   36   44       1
    42   37   38       2
    43   38   39       1
    44   38   42       1
    45   39   40       2
    46   39   41      am
    47   42   43       1
    48   43   44       2
    49   44   71       1
    50    5   45       1
    51    5   46       1
    52    6   47       1
    53    8   48       1
    54    9   49       1
    55   10   50       1
    56   11   51       1
    57   12   52       1
    58   14   53       1
    59   18   54       1
    60   18   55       1
    61   20   56       1
    62   43   70       1
    63   28   57       1
    64   28   58       1
    65   29   59       1
    66   31   60       1
    67   32   61       1
    68   33   62       1
    69   34   63       1
    70   35   64       1
    71   37   65       1
    72   41   66       1
    73   41   67       1
    74   42   68       1
    75   42   69       1
@<TRIPOS>SUBSTRUCTURE
     1 NAI851      1 GROUP             4 B     NAI     0 **** NAI B 851
