@<TRIPOS>MOLECULE
3t3f_N5P_1_ligand
   45    47     1     0     0
SMALL
NO_CHARGES


@<TRIPOS>ATOM
     1 OR2         17.5970   -20.7600    -1.2170 O.co2        1 N5P836   0.0000
     2 NRO         18.2210   -19.8290    -1.6890 N.2          1 N5P836   1.0000
     3 OR1         18.5660   -18.8870    -0.9970 O.co2        1 N5P836  -1.0000
     4 CZ3         18.5320   -19.8540    -3.0870 C.ar         1 N5P836   0.0000
     5 CE3         19.1170   -18.7320    -3.7050 C.ar         1 N5P836   0.0000
     6 CD2         19.4010   -18.7950    -5.0620 C.ar         1 N5P836   0.0000
     7 CH2         18.2350   -21.0210    -3.8220 C.ar         1 N5P836   0.0000
     8 CZ2         18.5260   -21.0690    -5.1770 C.ar         1 N5P836   0.0000
     9 CE2         19.0900   -19.9810    -5.7620 C.ar         1 N5P836   0.0000
    10 NE1         19.4550   -19.7760    -7.0900 N.pl3        1 N5P836   0.0000
    11 CD1         19.9910   -18.5120    -7.2230 C.2          1 N5P836   0.0000
    12 CG          19.9770   -17.8600    -6.0120 C.2          1 N5P836   0.0000
    13 C1'         19.3170   -20.7890    -8.1480 C.3          1 N5P836   0.0000
    14 O4'         20.4330   -20.6900    -8.9710 O.3          1 N5P836   0.0000
    15 C4'         20.0470   -20.1160   -10.1720 C.3          1 N5P836   0.0000
    16 C3'         18.6650   -20.5730   -10.3900 C.3          1 N5P836   0.0000
    17 O3'         18.7110   -21.7700   -11.0790 O.3          1 N5P836   0.0000
    18 C2'         18.0980   -20.6800    -9.0190 C.3          1 N5P836   0.0000
    19 C5'         20.0890   -18.6180   -10.0680 C.3          1 N5P836   0.0000
    20 O5'         19.9250   -18.1280   -11.3530 O.3          1 N5P836   0.0000
    21 PA          19.8980   -16.5700   -11.5430 P.3          1 N5P836   0.0000
    22 O1A         20.8350   -15.9010   -10.5090 O.co2        1 N5P836   0.0000
    23 O2A         20.3690   -16.2160   -12.9690 O.co2        1 N5P836  -1.0000
    24 O3A         18.4500   -16.0690   -11.3000 O.3          1 N5P836   0.0000
    25 PB          17.2540   -16.5580   -12.1920 P.3          1 N5P836   0.0000
    26 O1B         16.2550   -17.2560   -11.2430 O.co2        1 N5P836   0.0000
    27 O2B         17.6980   -17.6120   -13.2450 O.co2        1 N5P836  -1.0000
    28 O3B         16.6050   -15.2840   -12.8640 O.3          1 N5P836   0.0000
    29 PG          17.4270   -14.1570   -13.5970 P.3          1 N5P836   0.0000
    30 O3G         18.6320   -14.7570   -14.3060 O.co2        1 N5P836   0.0000
    31 O2G         17.9080   -13.0780   -12.6490 O.co2        1 N5P836  -1.0000
    32 O1G         16.5240   -13.4880   -14.6010 O.co2        1 N5P836  -1.0000
    33 HE3         19.3233   -17.9078    -3.1776 H            1 N5P836   0.0000
    34 HH2         17.8173   -21.8085    -3.3688 H            1 N5P836   0.0000
    35 HZ2         18.3244   -21.8889    -5.7129 H            1 N5P836   0.0000
    36 HD1         20.3395   -18.1254    -8.0768 H            1 N5P836   0.0000
    37 HG          20.2979   -16.9317    -5.8242 H            1 N5P836   0.0000
    38 H1'         19.3195   -21.6932    -7.7209 H            1 N5P836   0.0000
    39 H4'         20.6389   -20.4303   -10.9143 H            1 N5P836   0.0000
    40 H3'         18.1580   -19.8922   -10.9187 H            1 N5P836   0.0000
    41 H9          19.1703   -21.6321   -11.9565 H            1 N5P836   0.0000
    42 H2'1        17.5641   -19.8667    -8.7877 H            1 N5P836   0.0000
    43 H2'2        17.5219   -21.4927    -8.9321 H            1 N5P836   0.0000
    44 H5'1        20.9687   -18.3224    -9.6956 H            1 N5P836   0.0000
    45 H5'2        19.3506   -18.2922    -9.4775 H            1 N5P836   0.0000
@<TRIPOS>BOND
     1    1    2      ar
     2    2    3      ar
     3    2    4       1
     4    4    5      ar
     5    4    7      ar
     6    5    6      ar
     7    6    9      ar
     8    6   12       1
     9    7    8      ar
    10    8    9      ar
    11    9   10       1
    12   10   11       1
    13   10   13       1
    14   11   12       2
    15   13   14       1
    16   13   18       1
    17   14   15       1
    18   15   16       1
    19   15   19       1
    20   16   17       1
    21   16   18       1
    22   19   20       1
    23   20   21       1
    24   21   22      ar
    25   21   23      ar
    26   21   24       1
    27   24   25       1
    28   25   26      ar
    29   25   27      ar
    30   25   28       1
    31   28   29       1
    32   29   30      ar
    33   29   31      ar
    34   29   32      ar
    35    5   33       1
    36    7   34       1
    37    8   35       1
    38   11   36       1
    39   12   37       1
    40   13   38       1
    41   15   39       1
    42   16   40       1
    43   17   41       1
    44   18   42       1
    45   18   43       1
    46   19   44       1
    47   19   45       1
@<TRIPOS>SUBSTRUCTURE
     1 N5P836      1 GROUP             4 A     N5P     0 **** N5P A 836
