@<TRIPOS>MOLECULE
1j0x_NAD_2_ligand
   73    77     1     0     0
SMALL
NO_CHARGES


@<TRIPOS>ATOM
     1 PA          -8.2880   -20.3740     8.8430 P.3          1 NAD2336   0.0000
     2 O1A         -9.3500   -20.0920     7.8510 O.co2        1 NAD2336   0.0000
     3 O2A         -7.9350   -19.7360    10.1450 O.co2        1 NAD2336  -1.0000
     4 O5B         -7.8290   -21.9190     8.7230 O.3          1 NAD2336   0.0000
     5 C5B         -8.1520   -22.7850     7.5740 C.3          1 NAD2336   0.0000
     6 C4B         -6.8530   -23.1850     6.8800 C.3          1 NAD2336   0.0000
     7 O4B         -7.2570   -24.0680     5.7590 O.3          1 NAD2336   0.0000
     8 C3B         -6.0380   -22.0320     6.1740 C.3          1 NAD2336   0.0000
     9 O3B         -4.6970   -21.9380     6.7400 O.3          1 NAD2336   0.0000
    10 C2B         -6.0400   -22.3590     4.6830 C.3          1 NAD2336   0.0000
    11 O2B         -4.9400   -21.9710     3.9220 O.3          1 NAD2336   0.0000
    12 C1B         -6.3260   -23.8770     4.7130 C.3          1 NAD2336   0.0000
    13 N9A         -6.9850   -24.3510     3.4920 N.pl3        1 NAD2336   0.0000
    14 C8A         -7.9130   -23.7720     2.6210 C.2          1 NAD2336   0.0000
    15 N7A         -8.2650   -24.5570     1.6140 N.2          1 NAD2336   0.0000
    16 C5A         -7.5920   -25.7140     1.7520 C.ar         1 NAD2336   0.0000
    17 C6A         -7.5580   -26.9670     0.9630 C.ar         1 NAD2336   0.0000
    18 N6A         -8.2790   -27.1420    -0.1320 N.pl3        1 NAD2336   0.0000
    19 N1A         -6.7050   -27.9480     1.4650 N.ar         1 NAD2336   0.0000
    20 C2A         -5.9430   -27.8340     2.5740 C.ar         1 NAD2336   0.0000
    21 N3A         -5.9380   -26.6680     3.3600 N.ar         1 NAD2336   0.0000
    22 C4A         -6.7780   -25.6270     2.9160 C.ar         1 NAD2336   0.0000
    23 O3          -9.5240   -20.9530     9.7290 O.3          1 NAD2336   0.0000
    24 PN          -9.7760   -21.4120    11.3090 P.3          1 NAD2336   0.0000
    25 O1N        -10.1510   -20.2200    12.0970 O.co2        1 NAD2336   0.0000
    26 O2N         -8.5710   -22.2120    11.7100 O.co2        1 NAD2336  -1.0000
    27 O5D        -11.1120   -22.3300    11.1420 O.3          1 NAD2336   0.0000
    28 C5D        -11.0620   -23.6020    10.4070 C.3          1 NAD2336   0.0000
    29 C4D        -12.1620   -24.5040    10.8530 C.3          1 NAD2336   0.0000
    30 O4D        -12.2250   -24.5220    12.3470 O.3          1 NAD2336   0.0000
    31 C3D        -13.6110   -24.0670    10.3990 C.3          1 NAD2336   0.0000
    32 O3D        -14.3580   -25.2030     9.9090 O.3          1 NAD2336   0.0000
    33 C2D        -14.2560   -23.4960    11.6770 C.3          1 NAD2336   0.0000
    34 O2D        -15.6630   -23.5280    11.6530 O.3          1 NAD2336   0.0000
    35 C1D        -13.5960   -24.3910    12.7910 C.3          1 NAD2336   0.0000
    36 N1N        -13.6060   -23.8090    14.1870 N.pl3        1 NAD2336   0.0000
    37 C2N        -13.1200   -22.4490    14.3950 C.2          1 NAD2336   0.0000
    38 C3N        -12.8430   -21.9970    15.6290 C.2          1 NAD2336   0.0000
    39 C7N        -12.3390   -20.5870    15.8630 C.2          1 NAD2336   0.0000
    40 O7N        -13.1040   -19.7730    16.4340 O.2          1 NAD2336   0.0000
    41 N7N        -11.1020   -20.2540    15.4620 N.am         1 NAD2336   0.0000
    42 C4N        -13.0210   -22.8940    16.8600 C.3          1 NAD2336   0.0000
    43 C5N        -14.0440   -23.9900    16.5980 C.3          1 NAD2336   0.0000
    44 C6N        -14.0690   -24.5720    15.2980 C.3          1 NAD2336   0.0000
    45 H5B1        -8.7367   -22.2883     6.9326 H            1 NAD2336   0.0000
    46 H5B2        -8.6284   -23.6040     7.8938 H            1 NAD2336   0.0000
    47 H4B         -6.2632   -23.6837     7.5152 H            1 NAD2336   0.0000
    48 H3B         -6.5129   -21.1636     6.3170 H            1 NAD2336   0.0000
    49 H5          -4.0765   -22.5315     6.2275 H            1 NAD2336   0.0000
    50 H2B         -6.8437   -21.9160     4.2857 H            1 NAD2336   0.0000
    51 H7          -4.2603   -22.7045     3.9205 H            1 NAD2336   0.0000
    52 H1B         -5.4870   -24.3927     4.8863 H            1 NAD2336   0.0000
    53 H8A         -8.2776   -22.8494     2.7469 H            1 NAD2336   0.0000
    54 H6A1        -8.2247   -28.0053    -0.6337 H            1 NAD2336   0.0000
    55 H6A2        -8.8784   -26.4110    -0.4581 H            1 NAD2336   0.0000
    56 H2A         -5.3640   -28.6030     2.8448 H            1 NAD2336   0.0000
    57 H5D1       -10.1824   -24.0463    10.5769 H            1 NAD2336   0.0000
    58 H5D2       -11.1606   -23.4211     9.4284 H            1 NAD2336   0.0000
    59 H4D        -11.9806   -25.4300    10.5219 H            1 NAD2336   0.0000
    60 H3D        -13.5544   -23.3599     9.6942 H            1 NAD2336   0.0000
    61 H17        -15.2703   -24.9057     9.6273 H            1 NAD2336   0.0000
    62 H2D        -13.9544   -22.5504    11.7987 H            1 NAD2336   0.0000
    63 H19        -16.0197   -23.1460    12.5055 H            1 NAD2336   0.0000
    64 H1D        -14.0325   -25.2906    12.8001 H            1 NAD2336   0.0000
    65 H2N        -12.9914   -21.8454    13.6082 H            1 NAD2336   0.0000
    66 H7N1       -10.7606   -19.3261    15.6120 H            1 NAD2336   0.0000
    67 H7N2       -10.5219   -20.9338    15.0133 H            1 NAD2336   0.0000
    68 H4N1       -13.3313   -22.3350    17.6290 H            1 NAD2336   0.0000
    69 H4N2       -12.1427   -23.3149    17.0868 H            1 NAD2336   0.0000
    70 H5N1       -14.9493   -23.6013    16.7692 H            1 NAD2336   0.0000
    71 H5N2       -13.8681   -24.7259    17.2519 H            1 NAD2336   0.0000
    72 H6N1       -13.5097   -25.4000    15.3375 H            1 NAD2336   0.0000
    73 H6N2       -15.0187   -24.8201    15.1069 H            1 NAD2336   0.0000
@<TRIPOS>BOND
     1    1    2      ar
     2    1    3      ar
     3    1    4       1
     4    1   23       1
     5    4    5       1
     6    5    6       1
     7    6    7       1
     8    6    8       1
     9    7   12       1
    10    8    9       1
    11    8   10       1
    12   10   11       1
    13   10   12       1
    14   12   13       1
    15   13   14       1
    16   13   22       1
    17   14   15       2
    18   15   16       1
    19   16   17      ar
    20   16   22      ar
    21   17   18       1
    22   17   19      ar
    23   19   20      ar
    24   20   21      ar
    25   21   22      ar
    26   23   24       1
    27   24   25      ar
    28   24   26      ar
    29   24   27       1
    30   27   28       1
    31   28   29       1
    32   29   30       1
    33   29   31       1
    34   30   35       1
    35   31   32       1
    36   31   33       1
    37   33   34       1
    38   33   35       1
    39   35   36       1
    40   36   37       1
    41   36   44       1
    42   37   38       2
    43   38   39       1
    44   38   42       1
    45   39   40       2
    46   39   41      am
    47   42   43       1
    48   43   44       1
    49   44   73       1
    50    5   45       1
    51    5   46       1
    52    6   47       1
    53    8   48       1
    54    9   49       1
    55   10   50       1
    56   11   51       1
    57   12   52       1
    58   14   53       1
    59   18   54       1
    60   18   55       1
    61   20   56       1
    62   44   72       1
    63   28   57       1
    64   28   58       1
    65   29   59       1
    66   31   60       1
    67   32   61       1
    68   33   62       1
    69   34   63       1
    70   35   64       1
    71   37   65       1
    72   41   66       1
    73   41   67       1
    74   42   68       1
    75   42   69       1
    76   43   70       1
    77   43   71       1
@<TRIPOS>SUBSTRUCTURE
     1 NAD2336     1 GROUP             4 R     NAD     0 **** NAD R2336
