@<TRIPOS>MOLECULE
1yun_ATP_1_ligand
   43    45     1     0     0
SMALL
NO_CHARGES


@<TRIPOS>ATOM
     1 PG          33.5230   -44.8400    67.7080 P.3          1 ATP223   0.0000
     2 O1G         34.4550   -44.4380    68.8000 O.co2        1 ATP223   0.0000
     3 O2G         32.8840   -43.6080    67.0230 O.co2        1 ATP223  -1.0000
     4 O3G         34.2340   -45.7110    66.6740 O.co2        1 ATP223  -1.0000
     5 PB          31.3230   -45.0920    69.3860 P.3          1 ATP223   0.0000
     6 O1B         31.6990   -45.4710    70.7640 O.co2        1 ATP223   0.0000
     7 O2B         31.2150   -43.5970    69.1430 O.co2        1 ATP223  -1.0000
     8 O3B         32.3740   -45.7580    68.4050 O.3          1 ATP223   0.0000
     9 PA          29.5480   -46.4330    67.5770 P.3          1 ATP223   0.0000
    10 O1A         28.5540   -45.5260    66.9810 O.co2        1 ATP223   0.0000
    11 O2A         30.7900   -46.5960    66.7110 O.co2        1 ATP223  -1.0000
    12 O3A         29.9740   -45.8440    68.9870 O.3          1 ATP223   0.0000
    13 O5'         28.8670   -47.8200    67.9370 O.3          1 ATP223   0.0000
    14 C5'         27.4920   -47.9940    67.8970 C.3          1 ATP223   0.0000
    15 C4'         26.7690   -47.3920    69.0590 C.3          1 ATP223   0.0000
    16 O4'         27.5670   -46.6390    69.9340 O.3          1 ATP223   0.0000
    17 C3'         25.6790   -46.4510    68.6670 C.3          1 ATP223   0.0000
    18 O3'         24.5590   -47.2670    68.3570 O.3          1 ATP223   0.0000
    19 C2'         25.5290   -45.5090    69.8510 C.3          1 ATP223   0.0000
    20 O2'         24.3000   -45.4490    70.5070 O.3          1 ATP223   0.0000
    21 C1'         26.6250   -45.9550    70.7730 C.3          1 ATP223   0.0000
    22 N9          27.4780   -45.0860    71.6090 N.pl3        1 ATP223   0.0000
    23 C8          28.7620   -44.7160    71.3100 C.2          1 ATP223   0.0000
    24 N7          29.4100   -44.5630    72.4500 N.2          1 ATP223   0.0000
    25 C5          28.5960   -44.7520    73.5280 C.ar         1 ATP223   0.0000
    26 C6          28.6480   -44.6310    74.9210 C.ar         1 ATP223   0.0000
    27 N6          29.6570   -44.8130    75.7620 N.pl3        1 ATP223   0.0000
    28 N1          27.4400   -44.6120    75.5770 N.ar         1 ATP223   0.0000
    29 C2          26.3500   -45.2370    75.0490 C.ar         1 ATP223   0.0000
    30 N3          26.2910   -45.4390    73.7010 N.ar         1 ATP223   0.0000
    31 C4          27.3240   -44.9400    72.9640 C.ar         1 ATP223   0.0000
    32 H5'1        27.2995   -48.9752    67.8809 H            1 ATP223   0.0000
    33 H5'2        27.1459   -47.5726    67.0587 H            1 ATP223   0.0000
    34 H4'         26.3572   -48.1371    69.5836 H            1 ATP223   0.0000
    35 H3'         25.9546   -45.9338    67.8567 H            1 ATP223   0.0000
    36 H5          23.7166   -46.7682    68.5607 H            1 ATP223   0.0000
    37 H2'         25.7519   -44.5863    69.5365 H            1 ATP223   0.0000
    38 H7          24.4206   -45.7084    71.4652 H            1 ATP223   0.0000
    39 H1'         26.2284   -46.6421    71.3818 H            1 ATP223   0.0000
    40 H9          29.1405   -44.5853    70.3937 H            1 ATP223   0.0000
    41 H10         29.5194   -44.6822    76.7438 H            1 ATP223   0.0000
    42 H11         30.5555   -45.0810    75.4144 H            1 ATP223   0.0000
    43 H12         25.6044   -45.5430    75.6410 H            1 ATP223   0.0000
@<TRIPOS>BOND
     1    1    2      ar
     2    1    3      ar
     3    1    4      ar
     4    1    8       1
     5    5    6      ar
     6    5    7      ar
     7    5    8       1
     8    5   12       1
     9    9   10      ar
    10    9   11      ar
    11    9   12       1
    12    9   13       1
    13   13   14       1
    14   14   15       1
    15   15   16       1
    16   15   17       1
    17   16   21       1
    18   17   18       1
    19   17   19       1
    20   19   20       1
    21   19   21       1
    22   21   22       1
    23   22   23       1
    24   22   31       1
    25   23   24       2
    26   24   25       1
    27   25   26      ar
    28   25   31      ar
    29   26   27       1
    30   26   28      ar
    31   28   29      ar
    32   29   30      ar
    33   30   31      ar
    34   29   43       1
    35   27   42       1
    36   27   41       1
    37   23   40       1
    38   14   32       1
    39   14   33       1
    40   15   34       1
    41   17   35       1
    42   18   36       1
    43   19   37       1
    44   20   38       1
    45   21   39       1
@<TRIPOS>SUBSTRUCTURE
     1 ATP223      1 GROUP             4 A     ATP     0 **** ATP A 223
