@<TRIPOS>MOLECULE
2q5y_TYR_GLY_LEU_1_ligand
   50    50     3     0     0
SMALL
NO_CHARGES


@<TRIPOS>ATOM
     1 N           67.1100   102.4890    69.1730 N.4          1 TYR866   1.0000
     2 CA          68.1890   103.3490    68.6240 C.3          1 TYR866   0.0000
     3 C           68.8800   102.6790    67.4430 C.2          1 TYR866   0.0000
     4 O           70.0360   102.2670    67.5390 O.2          1 TYR866   0.0000
     5 CB          69.2190   103.6720    69.7140 C.3          1 TYR866   0.0000
     6 CG          68.6530   104.4610    70.8760 C.ar         1 TYR866   0.0000
     7 CD1         68.0160   103.8260    71.9310 C.ar         1 TYR866   0.0000
     8 CD2         68.7370   105.8480    70.9000 C.ar         1 TYR866   0.0000
     9 CE1         67.4810   104.5470    72.9820 C.ar         1 TYR866   0.0000
    10 CE2         68.2060   106.5770    71.9470 C.ar         1 TYR866   0.0000
    11 CZ          67.5800   105.9230    72.9840 C.ar         1 TYR866   0.0000
    12 OH          67.0480   106.6460    74.0280 O.3          1 TYR866   0.0000
    13 H1          66.4464   102.2864    68.4529 H            1 TYR866   0.0000
    14 H2          67.5045   101.6352    69.5126 H            1 TYR866   0.0000
    15 HA          67.7818   104.2061    68.3085 H            1 TYR866   0.0000
    16 HB1         69.9579   104.2047    69.3015 H            1 TYR866   0.0000
    17 HB2         69.5855   102.8109    70.0664 H            1 TYR866   0.0000
    18 HD1         67.9423   102.8287    71.9316 H            1 TYR866   0.0000
    19 HD2         69.1892   106.3264    70.1472 H            1 TYR866   0.0000
    20 HE1         67.0251   104.0742    73.7361 H            1 TYR866   0.0000
    21 HE2         68.2761   107.5745    71.9513 H            1 TYR866   0.0000
    22 HH          66.5915   106.1736    74.7819 H            1 TYR866   0.0000
    23 N           68.1560   102.5780    66.3330 N.am         2 GLY867   0.0000
    24 CA          68.6850   101.9530    65.1380 C.3          2 GLY867   0.0000
    25 C           67.5570   101.6210    64.1790 C.2          2 GLY867   0.0000
    26 O           66.5570   101.0390    64.5860 O.2          2 GLY867   0.0000
    27 H11         67.2246   102.9418    66.3225 H            2 GLY867   0.0000
    28 HA1         69.1637   101.1117    65.3892 H            2 GLY867   0.0000
    29 HA2         69.3241   102.5798    64.6923 H            2 GLY867   0.0000
    30 N           67.7340   101.9810    62.9080 N.am         3 LEU868   0.0000
    31 CA          66.7490   101.7700    61.8390 C.3          3 LEU868   0.0000
    32 C           65.5880   100.8070    62.1050 C.2          3 LEU868   0.0000
    33 O           65.4150    99.8700    61.2960 O.2          3 LEU868   0.0000
    34 CB          67.4700   101.3420    60.5560 C.3          3 LEU868   0.0000
    35 CG          68.7630   102.0750    60.1800 C.3          3 LEU868   0.0000
    36 CD1         69.0270   101.8860    58.6950 C.3          3 LEU868   0.0000
    37 CD2         68.6600   103.5560    60.4970 C.3          3 LEU868   0.0000
    38 H14         68.5965   102.4252    62.6655 H            3 LEU868   0.0000
    39 H15         66.3397   102.6626    61.6501 H            3 LEU868   0.0000
    40 H16         64.9897   100.9238    62.8977 H            3 LEU868   0.0000
    41 H17         66.8280   101.4637    59.7990 H            3 LEU868   0.0000
    42 H18         67.6943   100.3720    60.6501 H            3 LEU868   0.0000
    43 HG          69.5227   101.6827    60.6986 H            3 LEU868   0.0000
    44 HD11        69.8696   102.3620    58.4430 H            3 LEU868   0.0000
    45 HD12        69.1224   100.9109    58.4949 H            3 LEU868   0.0000
    46 HD13        68.2627   102.2608    58.1702 H            3 LEU868   0.0000
    47 HD21        69.5135   104.0113    60.2435 H            3 LEU868   0.0000
    48 HD22        67.9028   103.9556    59.9803 H            3 LEU868   0.0000
    49 HD23        68.4959   103.6767    61.4760 H            3 LEU868   0.0000
    50 H26         66.6525   102.9663    69.9232 H            3 LEU868   0.0000
@<TRIPOS>BOND
     1    1    2       1
     2    2    5       1
     3    2    3       1
     4    5    6       1
     5    6    7      ar
     6    6    8      ar
     7    7    9      ar
     8    9   11      ar
     9   11   12       1
    10   11   10      ar
    11   10    8      ar
    12    3    4       2
    13    1   13       1
    14    1   14       1
    15    2   15       1
    16    3   23      am
    17    5   16       1
    18    5   17       1
    19    7   18       1
    20    8   19       1
    21    9   20       1
    22   10   21       1
    23   12   22       1
    24   23   24       1
    25   24   25       1
    26   25   26       2
    27   25   30      am
    28   23   27       1
    29   24   28       1
    30   24   29       1
    31   30   31       1
    32   31   34       1
    33   31   32       1
    34   34   35       1
    35   35   36       1
    36   35   37       1
    37   32   33       2
    38   37   49       1
    39   30   38       1
    40   31   39       1
    41   32   40       1
    42   34   41       1
    43   34   42       1
    44   35   43       1
    45   36   44       1
    46   36   45       1
    47   36   46       1
    48   37   47       1
    49   37   48       1
    50    1   50       1
@<TRIPOS>SUBSTRUCTURE
     1 TYR866      1 RESIDUE           4 B     TYR     0 **** TYR B 866
     2 GLY867     23 RESIDUE           4 B     GLY     0 **** GLY B 867
     3 LEU868     30 RESIDUE           4 B     LEU     0 **** LEU B 868
