@<TRIPOS>MOLECULE
4uof_DAT_3_ligand
   38    40     1     0     0
SMALL
NO_CHARGES


@<TRIPOS>ATOM
     1 PB         -19.9800   -33.5440     7.2710 P.3          1 DAT1152   0.0000
     2 O1B        -18.5630   -33.9410     6.8540 O.co2        1 DAT1152   0.0000
     3 O2B        -20.2400   -33.9980     8.7420 O.co2        1 DAT1152  -1.0000
     4 O3B        -20.2140   -32.0730     7.0890 O.co2        1 DAT1152  -1.0000
     5 PA         -22.3830   -34.1000     5.8200 P.3          1 DAT1152   0.0000
     6 O1A        -22.8140   -32.6200     5.9290 O.co2        1 DAT1152   0.0000
     7 O2A        -22.3840   -34.5380     4.4100 O.co2        1 DAT1152  -1.0000
     8 O3A        -20.9260   -34.3580     6.2870 O.3          1 DAT1152   0.0000
     9 O5'        -23.3310   -35.0400     6.6280 O.3          1 DAT1152   0.0000
    10 C5'        -23.4570   -34.7300     8.0050 C.3          1 DAT1152   0.0000
    11 C4'        -23.5110   -36.0610     8.8110 C.3          1 DAT1152   0.0000
    12 O4'        -24.2440   -36.8850     8.1270 O.3          1 DAT1152   0.0000
    13 C3'        -22.1510   -36.7780     8.7820 C.3          1 DAT1152   0.0000
    14 O3'        -21.2510   -36.2350     9.6540 O.3          1 DAT1152   0.0000
    15 C2'        -22.5630   -38.2210     9.1050 C.3          1 DAT1152   0.0000
    16 C1'        -23.7830   -38.3390     8.5710 C.3          1 DAT1152   0.0000
    17 N9         -23.7680   -39.2960     7.4780 N.pl3        1 DAT1152   0.0000
    18 C8         -23.1970   -38.7240     6.3670 C.2          1 DAT1152   0.0000
    19 N7         -23.1450   -39.6640     5.3800 N.2          1 DAT1152   0.0000
    20 C5         -23.6730   -40.8160     5.8670 C.ar         1 DAT1152   0.0000
    21 C6         -23.8610   -42.0350     5.3180 C.ar         1 DAT1152   0.0000
    22 N6         -23.5880   -42.5260     4.0250 N.pl3        1 DAT1152   0.0000
    23 N1         -24.4170   -43.0250     6.0420 N.ar         1 DAT1152   0.0000
    24 C2         -24.7810   -42.7960     7.3320 C.ar         1 DAT1152   0.0000
    25 N3         -24.5790   -41.5730     7.8930 N.ar         1 DAT1152   0.0000
    26 C4         -24.0430   -40.5870     7.1680 C.ar         1 DAT1152   0.0000
    27 H5'1       -24.2971   -34.2094     8.1576 H            1 DAT1152   0.0000
    28 H5'2       -22.6706   -34.1882     8.3017 H            1 DAT1152   0.0000
    29 H4'        -23.8526   -35.9294     9.7416 H            1 DAT1152   0.0000
    30 H3'        -21.7773   -36.7405     7.8552 H            1 DAT1152   0.0000
    31 H5         -20.7348   -35.5128     9.1936 H            1 DAT1152   0.0000
    32 H2'1       -22.5923   -38.3690    10.0936 H            1 DAT1152   0.0000
    33 H2'2       -21.9289   -38.8728     8.6891 H            1 DAT1152   0.0000
    34 H1'        -24.4093   -38.6705     9.2766 H            1 DAT1152   0.0000
    35 H9         -22.8747   -37.7801     6.2944 H            1 DAT1152   0.0000
    36 H10        -23.7993   -43.4762     3.7961 H            1 DAT1152   0.0000
    37 H11        -23.1831   -41.9241     3.3368 H            1 DAT1152   0.0000
    38 H12        -25.1983   -43.5285     7.8699 H            1 DAT1152   0.0000
@<TRIPOS>BOND
     1    1    2      ar
     2    1    3      ar
     3    1    4      ar
     4    1    8       1
     5    5    6      ar
     6    5    7      ar
     7    5    8       1
     8    5    9       1
     9    9   10       1
    10   10   11       1
    11   11   12       1
    12   11   13       1
    13   12   16       1
    14   13   14       1
    15   13   15       1
    16   15   16       1
    17   16   17       1
    18   17   18       1
    19   17   26       1
    20   18   19       2
    21   19   20       1
    22   20   21      ar
    23   20   26      ar
    24   21   22       1
    25   21   23      ar
    26   23   24      ar
    27   24   25      ar
    28   25   26      ar
    29   24   38       1
    30   22   37       1
    31   22   36       1
    32   10   27       1
    33   10   28       1
    34   11   29       1
    35   13   30       1
    36   14   31       1
    37   15   32       1
    38   15   33       1
    39   16   34       1
    40   18   35       1
@<TRIPOS>SUBSTRUCTURE
     1 DAT1152     1 GROUP             4 C     DAT     0 **** DAT C1152
