@<TRIPOS>MOLECULE
4zfn_5GP_1_ligand
   37    39     1     0     0
SMALL
NO_CHARGES


@<TRIPOS>ATOM
     1 P           22.4350     1.1980    33.5680 P.3          1 5GP201   0.0000
     2 O1P         23.1870     0.3750    32.5670 O.co2        1 5GP201   0.0000
     3 O2P         21.9180     2.4660    32.9610 O.co2        1 5GP201  -1.0000
     4 O3P         21.4320     0.3770    34.3270 O.co2        1 5GP201  -1.0000
     5 O5'         23.4060     1.7530    34.7100 O.3          1 5GP201   0.0000
     6 C5'         23.8740     3.1110    34.6960 C.3          1 5GP201   0.0000
     7 C4'         23.1180     4.0840    35.5940 C.3          1 5GP201   0.0000
     8 O4'         23.8890     5.3150    35.7030 O.3          1 5GP201   0.0000
     9 C3'         21.7380     4.5150    35.1220 C.3          1 5GP201   0.0000
    10 O3'         20.9330     4.8880    36.2440 O.3          1 5GP201   0.0000
    11 C2'         22.0470     5.7400    34.2510 C.3          1 5GP201   0.0000
    12 O2'         20.9950     6.6730    34.1220 O.3          1 5GP201   0.0000
    13 C1'         23.2790     6.3560    34.9340 C.3          1 5GP201   0.0000
    14 N9          24.2800     6.8140    33.9580 N.pl3        1 5GP201   0.0000
    15 C8          25.2700     6.0050    33.5890 C.2          1 5GP201   0.0000
    16 N7          26.0600     6.6030    32.6870 N.2          1 5GP201   1.0000
    17 C5          25.5620     7.8290    32.4820 C.2          1 5GP201   0.0000
    18 C6          25.9980     8.8500    31.6520 C.2          1 5GP201   0.0000
    19 O6          27.0220     8.6810    30.9520 O.2          1 5GP201   0.0000
    20 N1          25.3250     9.9990    31.6190 N.pl3        1 5GP201   0.0000
    21 C2          24.2350    10.1650    32.3820 C.2          1 5GP201   0.0000
    22 N2          23.6030    11.3590    32.3000 N.pl3        1 5GP201   0.0000
    23 N3          23.7800     9.1750    33.2100 N.2          1 5GP201   0.0000
    24 C4          24.4340     7.9780    33.2790 C.2          1 5GP201   0.0000
    25 H5'1        23.8098     3.4477    33.7566 H            1 5GP201   0.0000
    26 H5'2        24.8315     3.1083    34.9845 H            1 5GP201   0.0000
    27 H4'         23.0325     3.6786    36.5041 H            1 5GP201   0.0000
    28 H3'         21.2984     3.7937    34.5868 H            1 5GP201   0.0000
    29 H5          21.2148     4.3615    37.0461 H            1 5GP201   0.0000
    30 H2'         22.3102     5.4261    33.3388 H            1 5GP201   0.0000
    31 H7          20.2026     6.3560    34.6431 H            1 5GP201   0.0000
    32 H1'         23.0042     7.1112    35.5291 H            1 5GP201   0.0000
    33 H9          25.4058     5.0775    33.9373 H            1 5GP201   0.0000
    34 H10         25.6337    10.7404    31.0231 H            1 5GP201   0.0000
    35 H11         22.7855    11.5308    32.8497 H            1 5GP201   0.0000
    36 H12         23.9536    12.0694    31.6897 H            1 5GP201   0.0000
    37 H13         26.8682     6.2085    32.2498 H            1 5GP201   0.0000
@<TRIPOS>BOND
     1    1    2      ar
     2    1    3      ar
     3    1    4      ar
     4    1    5       1
     5    5    6       1
     6    6    7       1
     7    7    8       1
     8    7    9       1
     9    8   13       1
    10    9   10       1
    11    9   11       1
    12   11   12       1
    13   11   13       1
    14   13   14       1
    15   14   15       1
    16   14   24       1
    17   15   16       2
    18   16   17       1
    19   17   18       1
    20   17   24       2
    21   18   19       2
    22   18   20       1
    23   20   21       1
    24   21   22       1
    25   21   23       2
    26   23   24       1
    27   22   36       1
    28   22   35       1
    29    6   25       1
    30    6   26       1
    31    7   27       1
    32    9   28       1
    33   10   29       1
    34   11   30       1
    35   12   31       1
    36   13   32       1
    37   15   33       1
    38   20   34       1
    39   16   37       1
@<TRIPOS>SUBSTRUCTURE
     1 5GP201      1 GROUP             4 A     5GP     0 **** 5GP A 201
