@<TRIPOS>MOLECULE
1g1a_NAD_4_ligand
   70    74     1     0     0
SMALL
NO_CHARGES


@<TRIPOS>ATOM
     1 PA          14.4870    35.0780    98.2120 P.3          1 NAD700   0.0000
     2 O1A         15.2880    36.1680    98.9010 O.co2        1 NAD700   0.0000
     3 O2A         14.5680    33.8030    98.9790 O.co2        1 NAD700  -1.0000
     4 O5B         12.9770    35.5600    98.0860 O.3          1 NAD700   0.0000
     5 C5B         11.9650    34.6920    97.5240 C.3          1 NAD700   0.0000
     6 C4B         10.6780    35.4830    97.6020 C.3          1 NAD700   0.0000
     7 O4B          9.5720    34.7390    97.0040 O.3          1 NAD700   0.0000
     8 C3B         10.2570    35.8300    99.0290 C.3          1 NAD700   0.0000
     9 O3B          9.9440    37.2580    99.1350 O.3          1 NAD700   0.0000
    10 C2B          9.1030    34.8090    99.2500 C.3          1 NAD700   0.0000
    11 O2B          8.0740    35.2560   100.1610 O.3          1 NAD700   0.0000
    12 C1B          8.5120    34.6330    97.8920 C.3          1 NAD700   0.0000
    13 N9A          7.8960    33.3330    97.6890 N.pl3        1 NAD700   0.0000
    14 C8A          8.3240    32.0840    98.0150 C.2          1 NAD700   0.0000
    15 N7A          7.4600    31.1090    97.6470 N.2          1 NAD700   0.0000
    16 C5A          6.4190    31.7870    97.0630 C.ar         1 NAD700   0.0000
    17 C6A          5.1980    31.3310    96.5000 C.ar         1 NAD700   0.0000
    18 N6A          4.8560    30.0320    96.4770 N.pl3        1 NAD700   0.0000
    19 N1A          4.3450    32.2790    95.9750 N.ar         1 NAD700   0.0000
    20 C2A          4.7210    33.6170    96.0270 C.ar         1 NAD700   0.0000
    21 N3A          5.8270    34.1360    96.5370 N.ar         1 NAD700   0.0000
    22 C4A          6.6550    33.1500    97.0570 C.ar         1 NAD700   0.0000
    23 O3          15.0240    34.8700    96.7790 O.3          1 NAD700   0.0000
    24 PN          16.2210    35.5510    95.9890 P.3          1 NAD700   0.0000
    25 O1N         16.1110    37.0310    95.9940 O.co2        1 NAD700   0.0000
    26 O2N         17.4710    35.1730    96.6230 O.co2        1 NAD700  -1.0000
    27 O5D         16.1570    35.0290    94.5010 O.3          1 NAD700   0.0000
    28 C5D         15.0230    35.3590    93.6690 C.3          1 NAD700   0.0000
    29 C4D         15.2120    34.6700    92.3480 C.3          1 NAD700   0.0000
    30 O4D         16.6190    34.7950    91.9380 O.3          1 NAD700   0.0000
    31 C3D         14.9290    33.1600    92.3810 C.3          1 NAD700   0.0000
    32 O3D         14.0880    32.6570    91.3520 O.3          1 NAD700   0.0000
    33 C2D         16.3260    32.5560    92.4100 C.3          1 NAD700   0.0000
    34 O2D         16.2980    31.2510    91.8070 O.3          1 NAD700   0.0000
    35 C1D         17.0980    33.5290    91.6140 C.3          1 NAD700   0.0000
    36 N1N         18.5540    33.4820    91.8230 N.ar         1 NAD700   1.0000
    37 C2N         18.8820    33.9340    93.1150 C.ar         1 NAD700   0.0000
    38 C3N         20.3140    34.0540    93.3750 C.ar         1 NAD700   0.0000
    39 C7N         20.9920    34.5600    94.6650 C.2          1 NAD700   0.0000
    40 O7N         22.2450    34.5980    94.5750 O.2          1 NAD700   0.0000
    41 N7N         20.2910    34.9350    95.7610 N.am         1 NAD700   0.0000
    42 C4N         21.3840    33.6870    92.3850 C.ar         1 NAD700   0.0000
    43 C5N         20.7620    33.1740    91.0560 C.ar         1 NAD700   0.0000
    44 C6N         19.4540    33.0750    90.7670 C.ar         1 NAD700   0.0000
    45 H5B1        11.8913    33.8486    98.0562 H            1 NAD700   0.0000
    46 H5B2        12.1826    34.4687    96.5738 H            1 NAD700   0.0000
    47 H4B         10.7987    36.3346    97.0919 H            1 NAD700   0.0000
    48 H3B         11.0082    35.6134    99.6526 H            1 NAD700   0.0000
    49 H5           9.1959    37.4825    98.5106 H            1 NAD700   0.0000
    50 H2B          9.4797    33.9391    99.5684 H            1 NAD700   0.0000
    51 H7           8.0001    36.2523   100.1175 H            1 NAD700   0.0000
    52 H1B          7.8454    35.3570    97.7144 H            1 NAD700   0.0000
    53 H8A          9.1907    31.9038    98.4802 H            1 NAD700   0.0000
    54 H6A1         3.9864    29.7510    96.0710 H            1 NAD700   0.0000
    55 H6A2         5.4710    29.3461    96.8659 H            1 NAD700   0.0000
    56 H2A          4.0750    34.2686    95.6294 H            1 NAD700   0.0000
    57 H5D1        14.9761    36.3487    93.5336 H            1 NAD700   0.0000
    58 H5D2        14.1791    35.0414    94.1014 H            1 NAD700   0.0000
    59 H4D         14.6269    35.1022    91.6618 H            1 NAD700   0.0000
    60 H3D         14.4921    32.9534    93.2565 H            1 NAD700   0.0000
    61 H17         14.5047    32.8402    90.4616 H            1 NAD700   0.0000
    62 H2D         16.6731    32.5076    93.3466 H            1 NAD700   0.0000
    63 H19         16.9129    31.2348    91.0186 H            1 NAD700   0.0000
    64 H1D         16.9133    33.3608    90.6457 H            1 NAD700   0.0000
    65 H2N         18.1889    34.1555    93.8010 H            1 NAD700   0.0000
    66 H7N1        20.7722    35.2571    96.5763 H            1 NAD700   0.0000
    67 H7N2        19.2920    34.8899    95.7552 H            1 NAD700   0.0000
    68 H4N         22.3659    33.7628    92.5584 H            1 NAD700   0.0000
    69 H5N         21.4017    32.8882    90.3425 H            1 NAD700   0.0000
    70 H6N         19.1254    32.7429    89.8829 H            1 NAD700   0.0000
@<TRIPOS>BOND
     1    1    2      ar
     2    1    3      ar
     3    1    4       1
     4    1   23       1
     5    4    5       1
     6    5    6       1
     7    6    7       1
     8    6    8       1
     9    7   12       1
    10    8    9       1
    11    8   10       1
    12   10   11       1
    13   10   12       1
    14   12   13       1
    15   13   14       1
    16   13   22       1
    17   14   15       2
    18   15   16       1
    19   16   17      ar
    20   16   22      ar
    21   17   18       1
    22   17   19      ar
    23   19   20      ar
    24   20   21      ar
    25   21   22      ar
    26   23   24       1
    27   24   25      ar
    28   24   26      ar
    29   24   27       1
    30   27   28       1
    31   28   29       1
    32   29   30       1
    33   29   31       1
    34   30   35       1
    35   31   32       1
    36   31   33       1
    37   33   34       1
    38   33   35       1
    39   35   36       1
    40   36   37      ar
    41   36   44      ar
    42   37   38      ar
    43   38   39       1
    44   38   42      ar
    45   39   40       2
    46   39   41      am
    47   42   43      ar
    48   43   44      ar
    49   44   70       1
    50    5   45       1
    51    5   46       1
    52    6   47       1
    53    8   48       1
    54    9   49       1
    55   10   50       1
    56   11   51       1
    57   12   52       1
    58   14   53       1
    59   18   54       1
    60   18   55       1
    61   20   56       1
    62   43   69       1
    63   28   57       1
    64   28   58       1
    65   29   59       1
    66   31   60       1
    67   32   61       1
    68   33   62       1
    69   34   63       1
    70   35   64       1
    71   37   65       1
    72   41   66       1
    73   41   67       1
    74   42   68       1
@<TRIPOS>SUBSTRUCTURE
     1 NAD700      1 GROUP             4 D     NAD     0 **** NAD D 700
