@<TRIPOS>MOLECULE
3gag_FMN_2_ligand
   50    52     1     0     0
SMALL
NO_CHARGES


@<TRIPOS>ATOM
     1 N1          33.6290    -0.3650    28.7200 N.2          1 FMN500   0.0000
     2 C2          34.2620    -1.2640    27.8490 C.2          1 FMN500   0.0000
     3 O2          35.4260    -1.0760    27.5190 O.2          1 FMN500   0.0000
     4 N3          33.5970    -2.3360    27.3110 N.pl3        1 FMN500   0.0000
     5 C4          32.2930    -2.5540    27.6530 C.2          1 FMN500   0.0000
     6 O4          31.7120    -3.5570    27.2330 O.2          1 FMN500   0.0000
     7 C4A         31.6530    -1.7050    28.5760 C.2          1 FMN500   0.0000
     8 N5          30.3260    -1.9020    28.8540 N.2          1 FMN500   0.0000
     9 C5A         29.7850    -1.2040    29.9330 C.ar         1 FMN500   0.0000
    10 C6          28.5550    -1.5950    30.4120 C.ar         1 FMN500   0.0000
    11 C7          28.0150    -0.9390    31.5190 C.ar         1 FMN500   0.0000
    12 C7M         26.6960    -1.3850    32.0520 C.3          1 FMN500   0.0000
    13 C8          28.6910     0.0810    32.1120 C.ar         1 FMN500   0.0000
    14 C8M         28.1590     0.7930    33.3180 C.3          1 FMN500   0.0000
    15 C9          29.9000     0.4880    31.6020 C.ar         1 FMN500   0.0000
    16 C9A         30.4750    -0.1570    30.5130 C.ar         1 FMN500   0.0000
    17 N10         31.6870     0.2530    29.9740 N.pl3        1 FMN500   0.0000
    18 C10         32.3150    -0.5920    29.0720 C.2          1 FMN500   0.0000
    19 C1'         32.4980     1.3240    30.6200 C.3          1 FMN500   0.0000
    20 C2'         31.9450     2.6980    30.1730 C.3          1 FMN500   0.0000
    21 O2'         32.2970     2.8870    28.8060 O.3          1 FMN500   0.0000
    22 C3'         32.4740     3.7880    31.0850 C.3          1 FMN500   0.0000
    23 O3'         32.0450     3.5890    32.4500 O.3          1 FMN500   0.0000
    24 C4'         32.0460     5.1870    30.6320 C.3          1 FMN500   0.0000
    25 O4'         32.6230     5.5270    29.3730 O.3          1 FMN500   0.0000
    26 C5'         32.4980     6.2310    31.6740 C.3          1 FMN500   0.0000
    27 O5'         33.9140     6.1850    31.7940 O.3          1 FMN500   0.0000
    28 P           34.5500     5.9820    33.2750 P.3          1 FMN500   0.0000
    29 O1P         36.0330     5.9930    32.9950 O.co2        1 FMN500   0.0000
    30 O2P         34.1500     4.6110    33.7260 O.co2        1 FMN500  -1.0000
    31 O3P         34.1650     7.0730    34.2090 O.co2        1 FMN500  -1.0000
    32 H1          34.0622    -2.9516    26.6749 H            1 FMN500   0.0000
    33 H2          28.0544    -2.3404    29.9718 H            1 FMN500   0.0000
    34 H7M1        26.4468    -0.8213    32.8395 H            1 FMN500   0.0000
    35 H7M2        25.9997    -1.2902    31.3405 H            1 FMN500   0.0000
    36 H7M3        26.7568    -2.3426    32.3335 H            1 FMN500   0.0000
    37 H8M1        28.8036     1.5052    33.5959 H            1 FMN500   0.0000
    38 H8M2        27.2770     1.2094    33.0972 H            1 FMN500   0.0000
    39 H8M3        28.0413     0.1397    34.0659 H            1 FMN500   0.0000
    40 H9          30.3747     1.2618    32.0215 H            1 FMN500   0.0000
    41 H1'1        33.4541     1.2381    30.3398 H            1 FMN500   0.0000
    42 H1'2        32.4335     1.2421    31.6145 H            1 FMN500   0.0000
    43 H2'         30.9478     2.6786    30.2452 H            1 FMN500   0.0000
    44 H13         32.4109     3.8635    28.6231 H            1 FMN500   0.0000
    45 H3'         33.4731     3.7491    31.0661 H            1 FMN500   0.0000
    46 H15         32.7332     3.9604    33.0732 H            1 FMN500   0.0000
    47 H4'         31.0495     5.2144    30.5529 H            1 FMN500   0.0000
    48 H17         33.1870     6.3464    29.4752 H            1 FMN500   0.0000
    49 H5'1        32.0800     6.0240    32.5586 H            1 FMN500   0.0000
    50 H5'2        32.2164     7.1436    31.3776 H            1 FMN500   0.0000
@<TRIPOS>BOND
     1    1    2       1
     2    1   18       2
     3    2    3       2
     4    2    4       1
     5    4    5       1
     6    5    6       2
     7    5    7       1
     8    7    8       2
     9    7   18       1
    10    8    9       1
    11    9   10      ar
    12    9   16      ar
    13   10   11      ar
    14   11   12       1
    15   11   13      ar
    16   13   14       1
    17   13   15      ar
    18   15   16      ar
    19   16   17       1
    20   17   18       1
    21   17   19       1
    22   19   20       1
    23   20   21       1
    24   20   22       1
    25   22   23       1
    26   22   24       1
    27   24   25       1
    28   24   26       1
    29   26   27       1
    30   27   28       1
    31   28   29      ar
    32   28   30      ar
    33   28   31      ar
    34    4   32       1
    35   10   33       1
    36   12   34       1
    37   12   35       1
    38   12   36       1
    39   14   37       1
    40   14   38       1
    41   14   39       1
    42   15   40       1
    43   19   41       1
    44   19   42       1
    45   20   43       1
    46   21   44       1
    47   22   45       1
    48   23   46       1
    49   24   47       1
    50   25   48       1
    51   26   49       1
    52   26   50       1
@<TRIPOS>SUBSTRUCTURE
     1 FMN500      1 GROUP             4 B     FMN     0 **** FMN B 500
