@<TRIPOS>MOLECULE
3hl0_NAD_1_ligand
   70    74     1     0     0
SMALL
NO_CHARGES


@<TRIPOS>ATOM
     1 PA          21.1000   119.2830    23.2440 P.3          1 NAD402   0.0000
     2 O1A         22.4690   118.7960    23.5700 O.co2        1 NAD402   0.0000
     3 O2A         20.9430   120.2040    22.0950 O.co2        1 NAD402  -1.0000
     4 O5B         20.4180   119.7990    24.5900 O.3          1 NAD402   0.0000
     5 C5B         19.2170   120.5730    24.4970 C.3          1 NAD402   0.0000
     6 C4B         19.1580   121.4710    25.7240 C.3          1 NAD402   0.0000
     7 O4B         18.9530   120.6600    26.8800 O.3          1 NAD402   0.0000
     8 C3B         20.4640   122.2620    25.9250 C.3          1 NAD402   0.0000
     9 O3B         20.2100   123.6340    26.2780 O.3          1 NAD402   0.0000
    10 C2B         21.1080   121.5110    27.0680 C.3          1 NAD402   0.0000
    11 O2B         21.9640   122.3160    27.8530 O.3          1 NAD402   0.0000
    12 C1B         19.9000   121.0160    27.8770 C.3          1 NAD402   0.0000
    13 N9A         20.1990   119.8250    28.7080 N.pl3        1 NAD402   0.0000
    14 C8A         20.7940   118.6480    28.2950 C.2          1 NAD402   0.0000
    15 N7A         20.8790   117.8080    29.3520 N.2          1 NAD402   0.0000
    16 C5A         20.3610   118.4280    30.4580 C.ar         1 NAD402   0.0000
    17 C6A         20.2150   118.0260    31.7850 C.ar         1 NAD402   0.0000
    18 N6A         20.3280   116.7400    32.2060 N.pl3        1 NAD402   0.0000
    19 N1A         19.6420   118.9560    32.6540 N.ar         1 NAD402   0.0000
    20 C2A         19.2210   120.1900    32.2100 C.ar         1 NAD402   0.0000
    21 N3A         19.3530   120.5850    30.9040 N.ar         1 NAD402   0.0000
    22 C4A         19.9260   119.6960    30.0400 C.ar         1 NAD402   0.0000
    23 O3          20.1150   118.0380    22.8570 O.3          1 NAD402   0.0000
    24 PN          20.4550   116.5390    22.3360 P.3          1 NAD402   0.0000
    25 O1N         19.1670   116.0470    21.7640 O.co2        1 NAD402   0.0000
    26 O2N         21.0750   115.8550    23.4690 O.co2        1 NAD402  -1.0000
    27 O5D         21.5050   116.7130    21.1420 O.3          1 NAD402   0.0000
    28 C5D         21.1090   117.1260    19.8370 C.3          1 NAD402   0.0000
    29 C4D         22.3900   117.3850    19.0430 C.3          1 NAD402   0.0000
    30 O4D         23.1940   116.2160    19.1070 O.3          1 NAD402   0.0000
    31 C3D         22.0570   117.6000    17.5720 C.3          1 NAD402   0.0000
    32 O3D         23.0230   118.5190    17.0380 O.3          1 NAD402   0.0000
    33 C2D         22.2390   116.2210    16.9830 C.3          1 NAD402   0.0000
    34 O2D         22.4950   116.2050    15.5780 O.3          1 NAD402   0.0000
    35 C1D         23.4140   115.7100    17.7960 C.3          1 NAD402   0.0000
    36 N1N         23.5080   114.2570    17.8400 N.ar         1 NAD402   1.0000
    37 C2N         24.6480   113.7050    17.3380 C.ar         1 NAD402   0.0000
    38 C3N         24.7880   112.3330    17.3550 C.ar         1 NAD402   0.0000
    39 C7N         26.0740   111.8510    16.8220 C.2          1 NAD402   0.0000
    40 O7N         26.2450   110.5230    16.9200 O.2          1 NAD402   0.0000
    41 N7N         26.9850   112.6940    16.2770 N.am         1 NAD402   0.0000
    42 C4N         23.7970   111.4600    17.9260 C.ar         1 NAD402   0.0000
    43 C5N         22.6350   112.0490    18.4290 C.ar         1 NAD402   0.0000
    44 C6N         22.5020   113.4480    18.3730 C.ar         1 NAD402   0.0000
    45 H5B1        18.4211   119.9679    24.4777 H            1 NAD402   0.0000
    46 H5B2        19.2327   121.1297    23.6665 H            1 NAD402   0.0000
    47 H4B         18.3952   122.1107    25.6293 H            1 NAD402   0.0000
    48 H3B         21.0349   122.2105    25.1056 H            1 NAD402   0.0000
    49 H5          19.6858   124.0742    25.5490 H            1 NAD402   0.0000
    50 H2B         21.6171   120.7278    26.7110 H            1 NAD402   0.0000
    51 H7          22.3575   121.7651    28.5889 H            1 NAD402   0.0000
    52 H1B         19.5402   121.7542    28.4477 H            1 NAD402   0.0000
    53 H8A         21.1099   118.4498    27.3671 H            1 NAD402   0.0000
    54 H6A1        20.2116   116.5188    33.1743 H            1 NAD402   0.0000
    55 H6A2        20.5277   116.0141    31.5478 H            1 NAD402   0.0000
    56 H2A         18.8038   120.8208    32.8643 H            1 NAD402   0.0000
    57 H5D1        20.5639   117.9625    19.8920 H            1 NAD402   0.0000
    58 H5D2        20.5717   116.4064    19.3972 H            1 NAD402   0.0000
    59 H4D         22.8820   118.1731    19.4129 H            1 NAD402   0.0000
    60 H3D         21.1223   117.9338    17.4496 H            1 NAD402   0.0000
    61 H17         22.8299   118.6806    16.0702 H            1 NAD402   0.0000
    62 H2D         21.4312   115.6656    17.1804 H            1 NAD402   0.0000
    63 H19         23.4811   116.2517    15.4183 H            1 NAD402   0.0000
    64 H1D         24.2639   116.0890    17.4297 H            1 NAD402   0.0000
    65 H2N         25.3713   114.2851    16.9634 H            1 NAD402   0.0000
    66 H7N1        27.8492   112.3357    15.9237 H            1 NAD402   0.0000
    67 H7N2        26.7929   113.6742    16.2283 H            1 NAD402   0.0000
    68 H4N         23.9349   110.4702    17.9613 H            1 NAD402   0.0000
    69 H5N         21.9091   111.4851    18.8227 H            1 NAD402   0.0000
    70 H6N         21.6675   113.8735    18.7231 H            1 NAD402   0.0000
@<TRIPOS>BOND
     1    1    2      ar
     2    1    3      ar
     3    1    4       1
     4    1   23       1
     5    4    5       1
     6    5    6       1
     7    6    7       1
     8    6    8       1
     9    7   12       1
    10    8    9       1
    11    8   10       1
    12   10   11       1
    13   10   12       1
    14   12   13       1
    15   13   14       1
    16   13   22       1
    17   14   15       2
    18   15   16       1
    19   16   17      ar
    20   16   22      ar
    21   17   18       1
    22   17   19      ar
    23   19   20      ar
    24   20   21      ar
    25   21   22      ar
    26   23   24       1
    27   24   25      ar
    28   24   26      ar
    29   24   27       1
    30   27   28       1
    31   28   29       1
    32   29   30       1
    33   29   31       1
    34   30   35       1
    35   31   32       1
    36   31   33       1
    37   33   34       1
    38   33   35       1
    39   35   36       1
    40   36   37      ar
    41   36   44      ar
    42   37   38      ar
    43   38   39       1
    44   38   42      ar
    45   39   40       2
    46   39   41      am
    47   42   43      ar
    48   43   44      ar
    49   44   70       1
    50    5   45       1
    51    5   46       1
    52    6   47       1
    53    8   48       1
    54    9   49       1
    55   10   50       1
    56   11   51       1
    57   12   52       1
    58   14   53       1
    59   18   54       1
    60   18   55       1
    61   20   56       1
    62   43   69       1
    63   28   57       1
    64   28   58       1
    65   29   59       1
    66   31   60       1
    67   32   61       1
    68   33   62       1
    69   34   63       1
    70   35   64       1
    71   37   65       1
    72   41   66       1
    73   41   67       1
    74   42   68       1
@<TRIPOS>SUBSTRUCTURE
     1 NAD402      1 GROUP             4 A     NAD     0 **** NAD A 402
