@<TRIPOS>MOLECULE
4lay_I63_1_ligand
   82    84     1     0     0
SMALL
NO_CHARGES


@<TRIPOS>ATOM
     1 O42         12.8340   -14.6990    11.9810 O.co2        1 I63301   0.0000
     2 C40         13.6500   -15.5920    12.3190 C.2          1 I63301   0.0000
     3 O41         14.4800   -16.0720    11.5090 O.co2        1 I63301  -1.0000
     4 C39         13.6320   -16.1060    13.7510 C.3          1 I63301   0.0000
     5 O38         14.9370   -16.0450    14.3640 O.3          1 I63301   0.0000
     6 C26         15.3260   -15.0340    15.2310 C.ar         1 I63301   0.0000
     7 C25         16.6870   -14.7980    15.4310 C.ar         1 I63301   0.0000
     8 C27         14.3800   -14.2620    15.9150 C.ar         1 I63301   0.0000
     9 C28         14.7700   -13.2530    16.7950 C.ar         1 I63301   0.0000
    10 C29         16.1320   -13.0150    16.9760 C.ar         1 I63301   0.0000
    11 C24         17.1000   -13.7920    16.3240 C.ar         1 I63301   0.0000
    12 C15         18.5410   -13.4710    16.5470 C.3          1 I63301   0.0000
    13 C16         19.4450   -14.6760    16.8520 C.3          1 I63301   0.0000
    14 C17         19.2880   -15.2200    18.2710 C.3          1 I63301   0.0000
    15 C18         20.0040   -14.3760    19.3090 C.ar         1 I63301   0.0000
    16 C23         19.2720   -13.4710    20.0700 C.ar         1 I63301   0.0000
    17 C22         19.9050   -12.6920    21.0470 C.ar         1 I63301   0.0000
    18 C21         21.2830   -12.8260    21.2540 C.ar         1 I63301   0.0000
    19 O34         21.9630   -12.0910    22.2000 O.3          1 I63301   0.0000
    20 C35         21.3060   -11.2610    23.1550 C.3          1 I63301   0.0000
    21 C20         22.0130   -13.7400    20.5060 C.ar         1 I63301   0.0000
    22 O36         23.3690   -13.8380    20.7310 O.3          1 I63301   0.0000
    23 C37         24.1810   -14.7020    19.9120 C.3          1 I63301   0.0000
    24 C19         21.3770   -14.5070    19.5170 C.ar         1 I63301   0.0000
    25 O1          18.9590   -12.9590    15.2720 O.3          1 I63301   0.0000
    26 C1          19.7230   -11.7610    15.2790 C.2          1 I63301   0.0000
    27 O2          19.9790   -11.1850    16.3230 O.2          1 I63301   0.0000
    28 C2          20.1590   -11.2420    13.9410 C.3          1 I63301   0.0000
    29 N7          19.6460   -12.0790    12.8260 N.am         1 I63301   0.0000
    30 C6          18.2090   -11.9630    12.5240 C.3          1 I63301   0.0000
    31 C5          17.7610   -10.5060    12.3780 C.3          1 I63301   0.0000
    32 C4          18.1680    -9.6880    13.6040 C.3          1 I63301   0.0000
    33 C3          19.6820    -9.7940    13.8010 C.3          1 I63301   0.0000
    34 C8          20.4980   -12.8980    12.1770 C.2          1 I63301   0.0000
    35 O3          21.6890   -12.9700    12.4460 O.2          1 I63301   0.0000
    36 C9          19.9940   -13.7170    11.0570 C.2          1 I63301   0.0000
    37 O4          19.8440   -13.2010     9.9630 O.2          1 I63301   0.0000
    38 C10         19.6730   -15.1890    11.1970 C.3          1 I63301   0.0000
    39 C13         18.3660   -15.5070    10.4780 C.3          1 I63301   0.0000
    40 C14         19.4650   -15.5500    12.6580 C.3          1 I63301   0.0000
    41 C11         20.7750   -16.0230    10.5380 C.3          1 I63301   0.0000
    42 C12         22.1010   -15.9600    11.2750 C.3          1 I63301   0.0000
    43 H1          13.3204   -17.0562    13.7490 H            1 I63301   0.0000
    44 H2          12.9976   -15.5483    14.2862 H            1 I63301   0.0000
    45 H3          17.3673   -15.3428    14.9406 H            1 I63301   0.0000
    46 H4          13.4062   -14.4372    15.7700 H            1 I63301   0.0000
    47 H5          14.0874   -12.7116    17.2859 H            1 I63301   0.0000
    48 H6          16.4241   -12.2757    17.5827 H            1 I63301   0.0000
    49 H7          18.6388   -12.7714    17.2548 H            1 I63301   0.0000
    50 H8          20.3967   -14.3965    16.7248 H            1 I63301   0.0000
    51 H9          19.2235   -15.4077    16.2074 H            1 I63301   0.0000
    52 H10         19.6616   -16.1471    18.3005 H            1 I63301   0.0000
    53 H11         18.3142   -15.2457    18.4970 H            1 I63301   0.0000
    54 H12         18.2881   -13.3758    19.9189 H            1 I63301   0.0000
    55 H13         19.3753   -12.0435    21.5938 H            1 I63301   0.0000
    56 H14         21.9878   -10.8229    23.7409 H            1 I63301   0.0000
    57 H15         20.7759   -10.5597    22.6784 H            1 I63301   0.0000
    58 H16         20.6935   -11.8183    23.7156 H            1 I63301   0.0000
    59 H17         25.1329   -14.6494    20.2138 H            1 I63301   0.0000
    60 H18         23.8560   -15.6439    19.9969 H            1 I63301   0.0000
    61 H19         24.1176   -14.4123    18.9570 H            1 I63301   0.0000
    62 H20         21.9082   -15.1471    18.9618 H            1 I63301   0.0000
    63 H21         21.1584   -11.2503    13.9089 H            1 I63301   0.0000
    64 H22         17.6893   -12.3863    13.2661 H            1 I63301   0.0000
    65 H23         18.0205   -12.4446    11.6681 H            1 I63301   0.0000
    66 H24         16.7662   -10.4770    12.2799 H            1 I63301   0.0000
    67 H25         18.1878   -10.1116    11.5642 H            1 I63301   0.0000
    68 H26         17.6999   -10.0431    14.4132 H            1 I63301   0.0000
    69 H27         17.9151    -8.7304    13.4660 H            1 I63301   0.0000
    70 H28         20.1371    -9.3821    13.0116 H            1 I63301   0.0000
    71 H29         19.9328    -9.2929    14.6293 H            1 I63301   0.0000
    72 H30         18.1607   -16.4809    10.5749 H            1 I63301   0.0000
    73 H31         17.6251   -14.9686    10.8795 H            1 I63301   0.0000
    74 H32         18.4553   -15.2800     9.5082 H            1 I63301   0.0000
    75 H33         19.2540   -16.5245    12.7338 H            1 I63301   0.0000
    76 H34         20.2981   -15.3483    13.1731 H            1 I63301   0.0000
    77 H35         18.7060   -15.0148    13.0288 H            1 I63301   0.0000
    78 H36         20.9136   -15.6860     9.6068 H            1 I63301   0.0000
    79 H37         20.4749   -16.9764    10.5063 H            1 I63301   0.0000
    80 H38         22.7753   -16.5226    10.7967 H            1 I63301   0.0000
    81 H39         22.4198   -15.0127    11.3071 H            1 I63301   0.0000
    82 H40         21.9812   -16.3031    12.2066 H            1 I63301   0.0000
@<TRIPOS>BOND
     1    1    2      ar
     2    2    3      ar
     3    2    4       1
     4    4    5       1
     5    5    6       1
     6    6    7      ar
     7    6    8      ar
     8    7   11      ar
     9    8    9      ar
    10    9   10      ar
    11   10   11      ar
    12   11   12       1
    13   12   13       1
    14   12   25       1
    15   13   14       1
    16   14   15       1
    17   15   16      ar
    18   15   24      ar
    19   16   17      ar
    20   17   18      ar
    21   18   19       1
    22   18   21      ar
    23   19   20       1
    24   21   22       1
    25   21   24      ar
    26   22   23       1
    27   25   26       1
    28   26   27       2
    29   26   28       1
    30   28   29       1
    31   28   33       1
    32   29   30       1
    33   29   34      am
    34   30   31       1
    35   31   32       1
    36   32   33       1
    37   34   35       2
    38   34   36       1
    39   36   37       2
    40   36   38       1
    41   38   39       1
    42   38   40       1
    43   38   41       1
    44   41   42       1
    45   42   82       1
    46    4   43       1
    47    4   44       1
    48    7   45       1
    49    8   46       1
    50    9   47       1
    51   10   48       1
    52   12   49       1
    53   13   50       1
    54   13   51       1
    55   14   52       1
    56   14   53       1
    57   16   54       1
    58   17   55       1
    59   20   56       1
    60   20   57       1
    61   20   58       1
    62   23   59       1
    63   23   60       1
    64   23   61       1
    65   24   62       1
    66   28   63       1
    67   30   64       1
    68   30   65       1
    69   31   66       1
    70   31   67       1
    71   32   68       1
    72   32   69       1
    73   33   70       1
    74   33   71       1
    75   39   72       1
    76   39   73       1
    77   39   74       1
    78   40   75       1
    79   40   76       1
    80   40   77       1
    81   41   78       1
    82   41   79       1
    83   42   80       1
    84   42   81       1
@<TRIPOS>SUBSTRUCTURE
     1 I63301      1 GROUP             4 A     I63     0 **** I63 A 301
