@<TRIPOS>MOLECULE
4lxl_PD2_1_ligand
   15    15     1     0     0
SMALL
NO_CHARGES


@<TRIPOS>ATOM
     1 O42         -9.0700    -2.7680    -9.4670 O.co2        1 PD2401   0.0000
     2 C41         -8.4210    -1.8970    -8.7930 C.2          1 PD2401   0.0000
     3 O41         -8.8780    -1.3390    -7.7800 O.co2        1 PD2401  -1.0000
     4 C4          -6.9760    -1.5910    -9.1350 C.ar         1 PD2401   0.0000
     5 C5          -6.1200    -1.1420    -8.1350 C.ar         1 PD2401   0.0000
     6 C6          -4.7920    -0.8770    -8.4280 C.ar         1 PD2401   0.0000
     7 C3          -6.4880    -1.7770   -10.4210 C.ar         1 PD2401   0.0000
     8 C2          -5.1500    -1.4940   -10.6500 C.ar         1 PD2401   0.0000
     9 N1          -4.3470    -1.0530    -9.6840 N.ar         1 PD2401   0.0000
    10 C21         -4.5570    -1.5010   -12.0260 C.2          1 PD2401   0.0000
    11 O21         -5.1460    -2.0660   -12.9250 O.co2        1 PD2401   0.0000
    12 O22         -3.5090    -0.8300   -12.2100 O.co2        1 PD2401  -1.0000
    13 H1          -6.4629    -1.0105    -7.2049 H            1 PD2401   0.0000
    14 H2          -4.1708    -0.5580    -7.7122 H            1 PD2401   0.0000
    15 H3          -7.0809    -2.1038   -11.1570 H            1 PD2401   0.0000
@<TRIPOS>BOND
     1    1    2      ar
     2    2    3      ar
     3    2    4       1
     4    4    5      ar
     5    4    7      ar
     6    5    6      ar
     7    6    9      ar
     8    7    8      ar
     9    8    9      ar
    10    8   10       1
    11   10   11      ar
    12   10   12      ar
    13    7   15       1
    14    5   13       1
    15    6   14       1
@<TRIPOS>SUBSTRUCTURE
     1 PD2401      1 GROUP             4 A     PD2     0 **** PD2 A 401
