@<TRIPOS>MOLECULE
3dbv_NAD_3_ligand
   70    74     1     0     0
SMALL
NO_CHARGES


@<TRIPOS>ATOM
     1 PA           7.2950    -9.2620    18.1660 P.3          1 NAD336   0.0000
     2 O1A          8.0050    -7.9770    18.3000 O.co2        1 NAD336   0.0000
     3 O2A          6.9700    -9.9700    19.4240 O.co2        1 NAD336  -1.0000
     4 O5B          8.2640   -10.3670    17.4850 O.3          1 NAD336   0.0000
     5 C5B          9.3900    -9.9610    16.7450 C.3          1 NAD336   0.0000
     6 C4B         10.3930   -10.9320    17.2380 C.3          1 NAD336   0.0000
     7 O4B         11.2210   -10.8530    16.1010 O.3          1 NAD336   0.0000
     8 C3B         11.0860   -10.3250    18.4540 C.3          1 NAD336   0.0000
     9 O3B         11.5180   -11.1810    19.5410 O.3          1 NAD336   0.0000
    10 C2B         12.2900    -9.6900    17.7950 C.3          1 NAD336   0.0000
    11 O2B         13.3690    -9.7250    18.7670 O.3          1 NAD336   0.0000
    12 C1B         12.5110   -10.6310    16.6280 C.3          1 NAD336   0.0000
    13 N9A         13.4110   -10.0720    15.6070 N.pl3        1 NAD336   0.0000
    14 C8A         13.1440    -9.0380    14.7850 C.2          1 NAD336   0.0000
    15 N7A         14.0940    -8.9370    13.8420 N.2          1 NAD336   0.0000
    16 C5A         14.9310    -9.9270    14.1260 C.ar         1 NAD336   0.0000
    17 C6A         16.0630   -10.2320    13.4130 C.ar         1 NAD336   0.0000
    18 N6A         16.4830    -9.5380    12.3440 N.pl3        1 NAD336   0.0000
    19 N1A         16.7560   -11.2690    13.8730 N.ar         1 NAD336   0.0000
    20 C2A         16.3880   -11.9910    14.9190 C.ar         1 NAD336   0.0000
    21 N3A         15.2990   -11.6800    15.5990 N.ar         1 NAD336   0.0000
    22 C4A         14.5410   -10.6410    15.2190 C.ar         1 NAD336   0.0000
    23 O3           5.9560    -9.1720    17.2750 O.3          1 NAD336   0.0000
    24 PN           4.8100   -10.2500    16.8650 P.3          1 NAD336   0.0000
    25 O1N          3.4610    -9.7010    17.2270 O.co2        1 NAD336   0.0000
    26 O2N          5.1680   -11.5750    17.4170 O.co2        1 NAD336  -1.0000
    27 O5D          4.7440   -10.3590    15.2550 O.3          1 NAD336   0.0000
    28 C5D          5.6420   -11.1180    14.3870 C.3          1 NAD336   0.0000
    29 C4D          4.9090   -11.3420    13.0610 C.3          1 NAD336   0.0000
    30 O4D          3.6850   -11.9900    13.4700 O.3          1 NAD336   0.0000
    31 C3D          4.4240   -10.0700    12.3540 C.3          1 NAD336   0.0000
    32 O3D          4.4110   -10.1200    10.9040 O.3          1 NAD336   0.0000
    33 C2D          3.0060    -9.8250    12.8530 C.3          1 NAD336   0.0000
    34 O2D          2.2790    -9.0230    11.8970 O.3          1 NAD336   0.0000
    35 C1D          2.5550   -11.2600    12.9540 C.3          1 NAD336   0.0000
    36 N1N          1.3540   -11.5000    13.7850 N.ar         1 NAD336   1.0000
    37 C2N          1.1520   -10.9560    15.0640 C.ar         1 NAD336   0.0000
    38 C3N          0.0450   -11.3920    15.8260 C.ar         1 NAD336   0.0000
    39 C7N         -0.2520   -10.9190    17.2550 C.2          1 NAD336   0.0000
    40 O7N         -1.3740   -11.0500    17.7150 O.2          1 NAD336   0.0000
    41 N7N          0.7630   -10.4100    17.9370 N.am         1 NAD336   0.0000
    42 C4N         -0.8070   -12.3650    15.3150 C.ar         1 NAD336   0.0000
    43 C5N         -0.6140   -12.8750    14.0470 C.ar         1 NAD336   0.0000
    44 C6N          0.4490   -12.4330    13.2860 C.ar         1 NAD336   0.0000
    45 H5B1         9.6517    -9.0192    16.9559 H            1 NAD336   0.0000
    46 H5B2         9.2388   -10.0525    15.7607 H            1 NAD336   0.0000
    47 H4B         10.0212   -11.8458    17.4018 H            1 NAD336   0.0000
    48 H3B         10.5051    -9.6014    18.8266 H            1 NAD336   0.0000
    49 H5          12.1754   -11.8512    19.1965 H            1 NAD336   0.0000
    50 H2B         12.0967    -8.7579    17.4886 H            1 NAD336   0.0000
    51 H7          13.5612   -10.6738    19.0177 H            1 NAD336   0.0000
    52 H1B         12.8858   -11.4950    16.9642 H            1 NAD336   0.0000
    53 H8A         12.3520    -8.4329    14.8659 H            1 NAD336   0.0000
    54 H6A1        17.3180    -9.8118    11.8667 H            1 NAD336   0.0000
    55 H6A2        15.9610    -8.7471    12.0247 H            1 NAD336   0.0000
    56 H2A         16.9385   -12.7782    15.1969 H            1 NAD336   0.0000
    57 H5D1         5.8638   -11.9973    14.8086 H            1 NAD336   0.0000
    58 H5D2         6.4840   -10.6018    14.2300 H            1 NAD336   0.0000
    59 H4D          5.4404   -11.9223    12.4439 H            1 NAD336   0.0000
    60 H3D          5.0004    -9.3052    12.6419 H            1 NAD336   0.0000
    61 H17          5.1333   -10.7337    10.5851 H            1 NAD336   0.0000
    62 H2D          3.0141    -9.3887    13.7528 H            1 NAD336   0.0000
    63 H19          1.9810    -8.1737    12.3326 H            1 NAD336   0.0000
    64 H1D          2.3655   -11.5923    12.0301 H            1 NAD336   0.0000
    65 H2N          1.7819   -10.2707    15.4296 H            1 NAD336   0.0000
    66 H7N1         0.6243   -10.0865    18.8730 H            1 NAD336   0.0000
    67 H7N2         1.6680   -10.3492    17.5159 H            1 NAD336   0.0000
    68 H4N         -1.5675   -12.6987    15.8720 H            1 NAD336   0.0000
    69 H5N         -1.2419   -13.5620    13.6813 H            1 NAD336   0.0000
    70 H6N          0.5715   -12.7892    12.3596 H            1 NAD336   0.0000
@<TRIPOS>BOND
     1    1    2      ar
     2    1    3      ar
     3    1    4       1
     4    1   23       1
     5    4    5       1
     6    5    6       1
     7    6    7       1
     8    6    8       1
     9    7   12       1
    10    8    9       1
    11    8   10       1
    12   10   11       1
    13   10   12       1
    14   12   13       1
    15   13   14       1
    16   13   22       1
    17   14   15       2
    18   15   16       1
    19   16   17      ar
    20   16   22      ar
    21   17   18       1
    22   17   19      ar
    23   19   20      ar
    24   20   21      ar
    25   21   22      ar
    26   23   24       1
    27   24   25      ar
    28   24   26      ar
    29   24   27       1
    30   27   28       1
    31   28   29       1
    32   29   30       1
    33   29   31       1
    34   30   35       1
    35   31   32       1
    36   31   33       1
    37   33   34       1
    38   33   35       1
    39   35   36       1
    40   36   37      ar
    41   36   44      ar
    42   37   38      ar
    43   38   39       1
    44   38   42      ar
    45   39   40       2
    46   39   41      am
    47   42   43      ar
    48   43   44      ar
    49   44   70       1
    50    5   45       1
    51    5   46       1
    52    6   47       1
    53    8   48       1
    54    9   49       1
    55   10   50       1
    56   11   51       1
    57   12   52       1
    58   14   53       1
    59   18   54       1
    60   18   55       1
    61   20   56       1
    62   43   69       1
    63   28   57       1
    64   28   58       1
    65   29   59       1
    66   31   60       1
    67   32   61       1
    68   33   62       1
    69   34   63       1
    70   35   64       1
    71   37   65       1
    72   41   66       1
    73   41   67       1
    74   42   68       1
@<TRIPOS>SUBSTRUCTURE
     1 NAD336      1 GROUP             4 Q     NAD     0 **** NAD Q 336
