@<TRIPOS>MOLECULE
2pv7_NAD_2_ligand
   70    74     1     0     0
SMALL
NO_CHARGES


@<TRIPOS>ATOM
     1 PA          25.7050    74.2910    33.4170 P.3          1 NAD400   0.0000
     2 O1A         24.3740    73.7990    33.0390 O.co2        1 NAD400   0.0000
     3 O2A         26.8230    73.7440    32.6790 O.co2        1 NAD400  -1.0000
     4 O5B         25.7250    75.8900    33.4470 O.3          1 NAD400   0.0000
     5 C5B         26.9070    76.6450    33.3130 C.3          1 NAD400   0.0000
     6 C4B         26.6840    77.7630    32.3140 C.3          1 NAD400   0.0000
     7 O4B         27.8470    78.6080    32.2590 O.3          1 NAD400   0.0000
     8 C3B         26.3990    77.2270    30.9100 C.3          1 NAD400   0.0000
     9 O3B         25.2280    77.8280    30.4210 O.3          1 NAD400   0.0000
    10 C2B         27.6250    77.6310    30.0970 C.3          1 NAD400   0.0000
    11 O2B         27.3870    77.9320    28.7160 O.3          1 NAD400   0.0000
    12 C1B         28.0680    78.8460    30.8760 C.3          1 NAD400   0.0000
    13 N9A         29.4820    79.2160    30.6390 N.pl3        1 NAD400   0.0000
    14 C8A         30.6080    78.4580    30.3680 C.2          1 NAD400   0.0000
    15 N7A         31.6600    79.2940    30.2180 N.2          1 NAD400   0.0000
    16 C5A         31.2110    80.5810    30.3950 C.ar         1 NAD400   0.0000
    17 C6A         31.8250    81.8200    30.3910 C.ar         1 NAD400   0.0000
    18 N6A         33.1440    81.9700    30.1270 N.pl3        1 NAD400   0.0000
    19 N1A         31.0330    82.9280    30.6320 N.ar         1 NAD400   0.0000
    20 C2A         29.6700    82.8770    30.8840 C.ar         1 NAD400   0.0000
    21 N3A         29.0620    81.6330    30.8960 N.ar         1 NAD400   0.0000
    22 C4A         29.8410    80.5290    30.6830 C.ar         1 NAD400   0.0000
    23 O3          26.0150    73.8490    34.9440 O.3          1 NAD400   0.0000
    24 PN          25.4330    74.5220    36.2720 P.3          1 NAD400   0.0000
    25 O1N         24.0880    75.1350    36.0550 O.co2        1 NAD400   0.0000
    26 O2N         25.5520    73.4110    37.2690 O.co2        1 NAD400  -1.0000
    27 O5D         26.4950    75.7000    36.6380 O.3          1 NAD400   0.0000
    28 C5D         27.7140    75.4310    37.2870 C.3          1 NAD400   0.0000
    29 C4D         27.7570    76.3290    38.5350 C.3          1 NAD400   0.0000
    30 O4D         26.6060    76.1290    39.3740 O.3          1 NAD400   0.0000
    31 C3D         28.9840    76.0790    39.4130 C.3          1 NAD400   0.0000
    32 O3D         29.4200    77.2850    40.0840 O.3          1 NAD400   0.0000
    33 C2D         28.4310    75.0750    40.4240 C.3          1 NAD400   0.0000
    34 O2D         29.2520    74.9420    41.5790 O.3          1 NAD400   0.0000
    35 C1D         27.0650    75.6990    40.6540 C.3          1 NAD400   0.0000
    36 N1N         26.1100    74.7390    41.2670 N.ar         1 NAD400   1.0000
    37 C2N         25.5370    73.8240    40.4580 C.ar         1 NAD400   0.0000
    38 C3N         24.6040    72.9460    41.0140 C.ar         1 NAD400   0.0000
    39 C7N         23.8930    71.9490    40.1700 C.2          1 NAD400   0.0000
    40 O7N         23.4030    70.8950    40.9100 O.2          1 NAD400   0.0000
    41 N7N         23.6680    72.0420    38.8470 N.am         1 NAD400   0.0000
    42 C4N         24.3310    73.0020    42.4030 C.ar         1 NAD400   0.0000
    43 C5N         24.9370    73.9630    43.2200 C.ar         1 NAD400   0.0000
    44 C6N         25.8400    74.8520    42.6290 C.ar         1 NAD400   0.0000
    45 H5B1        27.6457    76.0529    32.9908 H            1 NAD400   0.0000
    46 H5B2        27.1552    77.0352    34.1996 H            1 NAD400   0.0000
    47 H4B         25.9028    78.3106    32.6136 H            1 NAD400   0.0000
    48 H3B         26.3018    76.2319    30.9273 H            1 NAD400   0.0000
    49 H5          25.3523    78.8196    30.3849 H            1 NAD400   0.0000
    50 H2B         28.3219    76.9173    30.1675 H            1 NAD400   0.0000
    51 H7          27.1816    78.9057    28.6177 H            1 NAD400   0.0000
    52 H1B         27.4952    79.6175    30.5990 H            1 NAD400   0.0000
    53 H8A         30.6383    77.4611    30.2955 H            1 NAD400   0.0000
    54 H6A1        33.5545    82.8818    30.1328 H            1 NAD400   0.0000
    55 H6A2        33.7080    81.1690    29.9261 H            1 NAD400   0.0000
    56 H2A         29.1440    83.7108    31.0514 H            1 NAD400   0.0000
    57 H5D1        28.4811    75.6445    36.6820 H            1 NAD400   0.0000
    58 H5D2        27.7576    74.4681    37.5534 H            1 NAD400   0.0000
    59 H4D         27.7698    77.2837    38.2377 H            1 NAD400   0.0000
    60 H3D         29.7288    75.6769    38.8805 H            1 NAD400   0.0000
    61 H17         29.6573    77.9780    39.4032 H            1 NAD400   0.0000
    62 H2D         28.3224    74.1829    39.9854 H            1 NAD400   0.0000
    63 H19         28.8439    74.2757    42.2031 H            1 NAD400   0.0000
    64 H1D         27.1628    76.4939    41.2528 H            1 NAD400   0.0000
    65 H2N         25.7736    73.7758    39.4876 H            1 NAD400   0.0000
    66 H7N1        23.1771    71.3124    38.3708 H            1 NAD400   0.0000
    67 H7N2        23.9916    72.8407    38.3397 H            1 NAD400   0.0000
    68 H4N         23.6949    72.3441    42.8062 H            1 NAD400   0.0000
    69 H5N         24.7304    74.0124    44.1972 H            1 NAD400   0.0000
    70 H6N         26.2862    75.5597    43.1768 H            1 NAD400   0.0000
@<TRIPOS>BOND
     1    1    2      ar
     2    1    3      ar
     3    1    4       1
     4    1   23       1
     5    4    5       1
     6    5    6       1
     7    6    7       1
     8    6    8       1
     9    7   12       1
    10    8    9       1
    11    8   10       1
    12   10   11       1
    13   10   12       1
    14   12   13       1
    15   13   14       1
    16   13   22       1
    17   14   15       2
    18   15   16       1
    19   16   17      ar
    20   16   22      ar
    21   17   18       1
    22   17   19      ar
    23   19   20      ar
    24   20   21      ar
    25   21   22      ar
    26   23   24       1
    27   24   25      ar
    28   24   26      ar
    29   24   27       1
    30   27   28       1
    31   28   29       1
    32   29   30       1
    33   29   31       1
    34   30   35       1
    35   31   32       1
    36   31   33       1
    37   33   34       1
    38   33   35       1
    39   35   36       1
    40   36   37      ar
    41   36   44      ar
    42   37   38      ar
    43   38   39       1
    44   38   42      ar
    45   39   40       2
    46   39   41      am
    47   42   43      ar
    48   43   44      ar
    49   44   70       1
    50    5   45       1
    51    5   46       1
    52    6   47       1
    53    8   48       1
    54    9   49       1
    55   10   50       1
    56   11   51       1
    57   12   52       1
    58   14   53       1
    59   18   54       1
    60   18   55       1
    61   20   56       1
    62   43   69       1
    63   28   57       1
    64   28   58       1
    65   29   59       1
    66   31   60       1
    67   32   61       1
    68   33   62       1
    69   34   63       1
    70   35   64       1
    71   37   65       1
    72   41   66       1
    73   41   67       1
    74   42   68       1
@<TRIPOS>SUBSTRUCTURE
     1 NAD400      1 GROUP             4 B     NAD     0 **** NAD B 400
