@<TRIPOS>MOLECULE
4ys0_ADP_1_ligand
   39    41     1     0     0
SMALL
NO_CHARGES


@<TRIPOS>ATOM
     1 PB         -18.8220    -3.9980     3.1210 P.3          1 ADP901   0.0000
     2 O1B        -18.8020    -3.3530     1.7780 O.co2        1 ADP901   0.0000
     3 O2B        -17.4660    -4.4350     3.5820 O.co2        1 ADP901  -1.0000
     4 O3B        -19.6300    -3.2120     4.1140 O.co2        1 ADP901  -1.0000
     5 PA         -20.0510    -6.2130     1.6730 P.3          1 ADP901   0.0000
     6 O1A        -21.0940    -5.4410     0.8920 O.co2        1 ADP901   0.0000
     7 O2A        -18.8210    -6.7480     0.9830 O.co2        1 ADP901  -1.0000
     8 O3A        -19.6300    -5.4010     2.9930 O.3          1 ADP901   0.0000
     9 O5'        -20.7880    -7.4520     2.4080 O.3          1 ADP901   0.0000
    10 C5'        -20.0860    -8.2430     3.3740 C.3          1 ADP901   0.0000
    11 C4'        -20.7270    -9.6320     3.4710 C.3          1 ADP901   0.0000
    12 O4'        -22.0600    -9.5490     3.9930 O.3          1 ADP901   0.0000
    13 C3'        -20.8660   -10.2610     2.0950 C.3          1 ADP901   0.0000
    14 O3'        -20.5050   -11.6310     2.2410 O.3          1 ADP901   0.0000
    15 C2'        -22.3410   -10.1560     1.7700 C.3          1 ADP901   0.0000
    16 O2'        -22.7490   -11.2520     0.9620 O.3          1 ADP901   0.0000
    17 C1'        -22.9700   -10.2410     3.1400 C.3          1 ADP901   0.0000
    18 N9         -24.2660    -9.5460     3.3400 N.pl3        1 ADP901   0.0000
    19 C8         -24.4010    -8.2150     3.2790 C.2          1 ADP901   0.0000
    20 N7         -25.6700    -7.8460     3.5450 N.2          1 ADP901   0.0000
    21 C5         -26.3620    -8.9730     3.8330 C.ar         1 ADP901   0.0000
    22 C6         -27.7570    -9.2830     4.1900 C.ar         1 ADP901   0.0000
    23 N6         -28.6340    -8.2780     4.3370 N.pl3        1 ADP901   0.0000
    24 N1         -28.1000   -10.5860     4.3810 N.ar         1 ADP901   0.0000
    25 C2         -27.1830   -11.5720     4.2460 C.ar         1 ADP901   0.0000
    26 N3         -25.8930   -11.3580     3.9140 N.ar         1 ADP901   0.0000
    27 C4         -25.4360   -10.0960     3.6940 C.ar         1 ADP901   0.0000
    28 H5'1       -20.1301    -7.7938     4.2663 H            1 ADP901   0.0000
    29 H5'2       -19.1303    -8.3370     3.0950 H            1 ADP901   0.0000
    30 H4'        -20.1705   -10.2209     4.0572 H            1 ADP901   0.0000
    31 H3'        -20.3000    -9.7967     1.4138 H            1 ADP901   0.0000
    32 H5         -19.5629   -11.6942     2.5702 H            1 ADP901   0.0000
    33 H2'        -22.5525    -9.2838     1.3290 H            1 ADP901   0.0000
    34 H7         -23.7240   -11.1693     0.7557 H            1 ADP901   0.0000
    35 H1'        -23.0463   -11.1969     3.4235 H            1 ADP901   0.0000
    36 H9         -23.6592    -7.5795     3.0647 H            1 ADP901   0.0000
    37 H10        -29.5840    -8.4748     4.5792 H            1 ADP901   0.0000
    38 H11        -28.3375    -7.3322     4.2043 H            1 ADP901   0.0000
    39 H12        -27.4789   -12.5145     4.4014 H            1 ADP901   0.0000
@<TRIPOS>BOND
     1    1    2      ar
     2    1    3      ar
     3    1    4      ar
     4    1    8       1
     5    5    6      ar
     6    5    7      ar
     7    5    8       1
     8    5    9       1
     9    9   10       1
    10   10   11       1
    11   11   12       1
    12   11   13       1
    13   12   17       1
    14   13   14       1
    15   13   15       1
    16   15   16       1
    17   15   17       1
    18   17   18       1
    19   18   19       1
    20   18   27       1
    21   19   20       2
    22   20   21       1
    23   21   22      ar
    24   21   27      ar
    25   22   23       1
    26   22   24      ar
    27   24   25      ar
    28   25   26      ar
    29   26   27      ar
    30   25   39       1
    31   23   38       1
    32   23   37       1
    33   10   28       1
    34   10   29       1
    35   11   30       1
    36   13   31       1
    37   14   32       1
    38   15   33       1
    39   16   34       1
    40   17   35       1
    41   19   36       1
@<TRIPOS>SUBSTRUCTURE
     1 ADP901      1 GROUP             4 A     ADP     0 **** ADP A 901
