@<TRIPOS>MOLECULE
1weg_IMD_1_ligand
    9     9     1     0     0
SMALL
NO_CHARGES


@<TRIPOS>ATOM
     1 N1          17.2240     0.2650    19.0350 N.2          1 IMD1796   0.0000
     2 C2          16.3530    -0.5770    18.5120 C.2          1 IMD1796   0.0000
     3 N3          15.2160     0.0950    18.1720 N.pl3        1 IMD1796   0.0000
     4 C4          15.3960     1.4050    18.5010 C.2          1 IMD1796   0.0000
     5 C5          16.6280     1.5500    19.0370 C.2          1 IMD1796   0.0000
     6 H1          16.5035    -1.5574    18.3845 H            1 IMD1796   0.0000
     7 H2          14.7278     2.1370    18.3680 H            1 IMD1796   0.0000
     8 H3          17.0387     2.3988    19.3700 H            1 IMD1796   0.0000
     9 H4          14.3978    -0.3020    17.7562 H            1 IMD1796   0.0000
@<TRIPOS>BOND
     1    1    2       2
     2    1    5       1
     3    2    3       1
     4    3    4       1
     5    4    5       2
     6    5    8       1
     7    2    6       1
     8    4    7       1
     9    3    9       1
@<TRIPOS>SUBSTRUCTURE
     1 IMD1796     1 GROUP             4 A     IMD     0 **** IMD A1796
