@<TRIPOS>MOLECULE
2zw5_COA_2_ligand
   80    82     1     0     0
SMALL
NO_CHARGES


@<TRIPOS>ATOM
     1 N1A         56.9370    41.2010   110.4640 N.ar         1 COA401   0.0000
     2 C2A         56.5880    40.0380   109.8860 C.ar         1 COA401   0.0000
     3 N3A         55.3620    39.5180   110.0470 N.ar         1 COA401   0.0000
     4 C4A         54.4240    40.1460   110.8070 C.ar         1 COA401   0.0000
     5 C5A         54.7550    41.3790   111.4400 C.ar         1 COA401   0.0000
     6 C6A         56.0670    41.8990   111.2410 C.ar         1 COA401   0.0000
     7 N6A         56.4440    43.0950   111.8310 N.pl3        1 COA401   0.0000
     8 N7A         53.6660    41.7850   112.1230 N.2          1 COA401   0.0000
     9 C8A         52.7080    40.9210   111.9690 C.2          1 COA401   0.0000
    10 N9A         53.1070    39.8880   111.1710 N.pl3        1 COA401   0.0000
    11 C1B         52.2470    38.7340   110.8060 C.3          1 COA401   0.0000
    12 C2B         52.5550    38.0410   109.4420 C.3          1 COA401   0.0000
    13 O2B         52.0180    38.7800   108.3430 O.3          1 COA401   0.0000
    14 C3B         51.8980    36.6540   109.6600 C.3          1 COA401   0.0000
    15 O3B         50.4640    36.7250   109.3520 O.3          1 COA401   0.0000
    16 P3B         49.7840    35.2370   109.5990 P.3          1 COA401   0.0000
    17 O7A         49.5180    35.0420   111.0470 O.co2        1 COA401   0.0000
    18 O8A         48.3950    35.1410   108.7900 O.co2        1 COA401  -1.0000
    19 O9A         50.7870    34.0740   109.0780 O.co2        1 COA401  -1.0000
    20 C4B         52.1990    36.3970   111.1420 C.3          1 COA401   0.0000
    21 O4B         52.3590    37.6740   111.7920 O.3          1 COA401   0.0000
    22 C5B         53.4760    35.5650   111.3110 C.3          1 COA401   0.0000
    23 O5B         53.2410    34.6450   112.3680 O.3          1 COA401   0.0000
    24 P1A         54.6930    34.1990   112.9830 P.3          1 COA401   0.0000
    25 O1A         54.8510    34.5010   114.4640 O.co2        1 COA401   0.0000
    26 O2A         55.9570    34.1880   112.0560 O.co2        1 COA401  -1.0000
    27 O3A         54.4430    32.5730   113.0700 O.3          1 COA401   0.0000
    28 P2A         52.9740    32.3130   113.8260 P.3          1 COA401   0.0000
    29 O4A         51.7890    32.4010   112.8910 O.co2        1 COA401   0.0000
    30 O5A         52.7970    32.7190   115.3350 O.co2        1 COA401  -1.0000
    31 O6A         53.0310    30.6730   113.9890 O.3          1 COA401   0.0000
    32 CBP         54.4530    28.9130   115.0240 C.3          1 COA401   0.0000
    33 CCP         53.9070    30.3610   115.0900 C.3          1 COA401   0.0000
    34 CDP         55.5440    28.4630   115.9960 C.3          1 COA401   0.0000
    35 CEP         53.7330    27.8140   114.1850 C.3          1 COA401   0.0000
    36 CAP         53.3210    28.6880   116.2040 C.3          1 COA401   0.0000
    37 OAP         51.9570    28.7090   115.6990 O.3          1 COA401   0.0000
    38 C9P         53.4180    27.3910   117.0840 C.2          1 COA401   0.0000
    39 O9P         53.9350    27.4600   118.1890 O.2          1 COA401   0.0000
    40 N8P         52.8820    26.2090   116.6440 N.am         1 COA401   0.0000
    41 C7P         52.8930    24.9740   117.4690 C.3          1 COA401   0.0000
    42 C6P         54.2180    24.2030   117.2860 C.3          1 COA401   0.0000
    43 C5P         54.4970    23.8870   115.8270 C.2          1 COA401   0.0000
    44 O5P         53.7160    24.2440   114.9600 O.2          1 COA401   0.0000
    45 N4P         55.6230    23.1960   115.4940 N.am         1 COA401   0.0000
    46 C3P         55.9340    22.8520   114.0910 C.3          1 COA401   0.0000
    47 C2P         56.9390    21.6970   114.0420 C.3          1 COA401   0.0000
    48 S1P         58.6350    22.3590   114.0140 S.3          1 COA401   0.0000
    49 H2A         57.2565    39.5506   109.3243 H            1 COA401   0.0000
    50 H6A1        55.7940    43.5984   112.4003 H            1 COA401   0.0000
    51 H6A2        57.3660    43.4546   111.6874 H            1 COA401   0.0000
    52 H8A         51.8000    41.0019   112.3800 H            1 COA401   0.0000
    53 H1B         51.2970    39.0458   110.7899 H            1 COA401   0.0000
    54 H2B         53.5431    37.9352   109.3300 H            1 COA401   0.0000
    55 H7          52.2332    38.3089   107.4876 H            1 COA401   0.0000
    56 H3B         52.3432    35.9640   109.0893 H            1 COA401   0.0000
    57 H4B         51.4300    35.9097   111.5557 H            1 COA401   0.0000
    58 H5B1        54.2455    36.1611   111.5403 H            1 COA401   0.0000
    59 H5B2        53.6775    35.0710   110.4652 H            1 COA401   0.0000
    60 HCP1        53.4001    30.4736   115.9446 H            1 COA401   0.0000
    61 HCP2        54.6796    30.9957   115.0746 H            1 COA401   0.0000
    62 HDP1        55.7775    27.5075   115.8159 H            1 COA401   0.0000
    63 HDP2        56.3560    29.0335   115.8730 H            1 COA401   0.0000
    64 HDP3        55.2120    28.5537   116.9349 H            1 COA401   0.0000
    65 HEP1        54.2324    26.9515   114.2668 H            1 COA401   0.0000
    66 HEP2        52.8004    27.6927   114.5249 H            1 COA401   0.0000
    67 HEP3        53.7043    28.0928   113.2251 H            1 COA401   0.0000
    68 HAP         53.4046    29.4634   116.8299 H            1 COA401   0.0000
    69 H21         51.9073    29.3056   114.8980 H            1 COA401   0.0000
    70 H8P         52.4683    26.1768   115.7341 H            1 COA401   0.0000
    71 H7P1        52.1318    24.3878   117.1916 H            1 COA401   0.0000
    72 H7P2        52.7887    25.2223   118.4320 H            1 COA401   0.0000
    73 H6P1        54.1655    23.3453   117.7975 H            1 COA401   0.0000
    74 H6P2        54.9674    24.7597   117.6446 H            1 COA401   0.0000
    75 H4P         56.2544    22.9148   116.2167 H            1 COA401   0.0000
    76 H3P1        56.3254    23.6505   113.6337 H            1 COA401   0.0000
    77 H3P2        55.0933    22.5789   113.6234 H            1 COA401   0.0000
    78 H2P1        56.7807    21.1536   113.2176 H            1 COA401   0.0000
    79 H2P2        56.8210    21.1194   114.8497 H            1 COA401   0.0000
    80 H1P         59.2878    21.6021   113.9820 H            1 COA401   0.0000
@<TRIPOS>BOND
     1    1    2      ar
     2    1    6      ar
     3    2    3      ar
     4    3    4      ar
     5    4    5      ar
     6    4   10       1
     7    5    6      ar
     8    5    8       1
     9    6    7       1
    10    8    9       2
    11    9   10       1
    12   10   11       1
    13   11   12       1
    14   11   21       1
    15   12   13       1
    16   12   14       1
    17   14   15       1
    18   14   20       1
    19   15   16       1
    20   16   17      ar
    21   16   18      ar
    22   16   19      ar
    23   20   21       1
    24   20   22       1
    25   22   23       1
    26   23   24       1
    27   24   25      ar
    28   24   26      ar
    29   24   27       1
    30   27   28       1
    31   28   29      ar
    32   28   30      ar
    33   28   31       1
    34   31   33       1
    35   32   33       1
    36   32   34       1
    37   32   35       1
    38   32   36       1
    39   36   37       1
    40   36   38       1
    41   38   39       2
    42   38   40      am
    43   40   41       1
    44   41   42       1
    45   42   43       1
    46   43   44       2
    47   43   45      am
    48   45   46       1
    49   46   47       1
    50   47   48       1
    51    2   49       1
    52    7   50       1
    53    7   51       1
    54    9   52       1
    55   11   53       1
    56   12   54       1
    57   13   55       1
    58   14   56       1
    59   48   80       1
    60   47   79       1
    61   20   57       1
    62   22   58       1
    63   22   59       1
    64   47   78       1
    65   46   77       1
    66   33   60       1
    67   33   61       1
    68   34   62       1
    69   34   63       1
    70   34   64       1
    71   35   65       1
    72   35   66       1
    73   35   67       1
    74   36   68       1
    75   37   69       1
    76   40   70       1
    77   41   71       1
    78   41   72       1
    79   42   73       1
    80   42   74       1
    81   45   75       1
    82   46   76       1
@<TRIPOS>SUBSTRUCTURE
     1 COA401      1 GROUP             4 B     COA     0 **** COA B 401
