@<TRIPOS>MOLECULE
1rej_B1L_1_ligand
   50    52     1     0     0
SMALL
NO_CHARGES


@<TRIPOS>ATOM
     1 O1          16.9020    39.1290    19.4210 O.3          1 B1L351   0.0000
     2 C1          15.6260    39.4820    19.2210 C.ar         1 B1L351   0.0000
     3 C2          15.2800    40.8300    19.0950 C.ar         1 B1L351   0.0000
     4 C3          13.9470    41.1980    18.8910 C.ar         1 B1L351   0.0000
     5 C4          12.9590    40.2120    18.8100 C.ar         1 B1L351   0.0000
     6 C5          13.3010    38.8640    18.9310 C.ar         1 B1L351   0.0000
     7 C6          14.6340    38.5000    19.1430 C.ar         1 B1L351   0.0000
     8 C7          11.6330    40.5750    18.6060 C.2          1 B1L351   0.0000
     9 O7          11.3220    41.7800    18.4860 O.2          1 B1L351   0.0000
    10 N8          10.6710    39.6300    18.5350 N.am         1 B1L351   0.0000
    11 C8           9.2740    39.9710    18.7520 C.3          1 B1L351   0.0000
    12 C9           8.4700    39.6660    17.4790 C.3          1 B1L351   0.0000
    13 C10          6.9560    39.6620    17.7350 C.3          1 B1L351   0.0000
    14 C11          6.5410    38.4710    18.5840 C.3          1 B1L351   0.0000
    15 C12          6.3870    38.9240    20.0260 C.3          1 B1L351   0.0000
    16 N13          7.5010    39.7750    20.4130 N.4          1 B1L351   1.0000
    17 C14          8.7570    39.2010    19.9620 C.3          1 B1L351   0.0000
    18 O9           8.7600    40.6800    16.5230 O.3          1 B1L351   0.0000
    19 C15          8.1770    40.3930    15.2660 C.2          1 B1L351   0.0000
    20 O15          8.3170    39.2670    14.7700 O.2          1 B1L351   0.0000
    21 C16          7.4700    41.3770    14.5890 C.ar         1 B1L351   0.0000
    22 C17          6.6430    42.2620    15.2960 C.ar         1 B1L351   0.0000
    23 C18          5.9290    43.2540    14.6040 C.ar         1 B1L351   0.0000
    24 C19          6.0590    43.3760    13.2190 C.ar         1 B1L351   0.0000
    25 C20          6.8880    42.4920    12.5160 C.ar         1 B1L351   0.0000
    26 C21          7.6010    41.5040    13.2060 C.ar         1 B1L351   0.0000
    27 O19          5.3820    44.3220    12.5500 O.3          1 B1L351   0.0000
    28 H1          17.6115    39.8311    19.4807 H            1 B1L351   0.0000
    29 H2          15.9883    41.5337    19.1510 H            1 B1L351   0.0000
    30 H3          13.7008    42.1633    18.8033 H            1 B1L351   0.0000
    31 H4          12.5938    38.1600    18.8661 H            1 B1L351   0.0000
    32 H5          14.8785    37.5351    19.2391 H            1 B1L351   0.0000
    33 H6          10.9223    38.6839    18.3307 H            1 B1L351   0.0000
    34 H7           9.2097    40.9502    18.9443 H            1 B1L351   0.0000
    35 H8           8.7480    38.7769    17.1153 H            1 B1L351   0.0000
    36 H9           6.4777    39.6189    16.8579 H            1 B1L351   0.0000
    37 H10          6.7041    40.5046    18.2110 H            1 B1L351   0.0000
    38 H11          7.2412    37.7592    18.5288 H            1 B1L351   0.0000
    39 H12          5.6704    38.1087    18.2512 H            1 B1L351   0.0000
    40 H13          6.3628    38.1217    20.6224 H            1 B1L351   0.0000
    41 H14          5.5332    39.4358    20.1210 H            1 B1L351   0.0000
    42 H15          7.5178    39.8632    21.4090 H            1 B1L351   0.0000
    43 H16          9.4295    39.2530    20.7003 H            1 B1L351   0.0000
    44 H17          8.6127    38.2443    19.7094 H            1 B1L351   0.0000
    45 H18          6.5619    42.1870    16.2899 H            1 B1L351   0.0000
    46 H19          5.3257    43.8748    15.1047 H            1 B1L351   0.0000
    47 H20          6.9704    42.5666    11.5222 H            1 B1L351   0.0000
    48 H21          8.2071    40.8864    12.7049 H            1 B1L351   0.0000
    49 H22          4.7777    44.9477    13.0433 H            1 B1L351   0.0000
    50 H23          7.3845    40.6784    20.0003 H            1 B1L351   0.0000
@<TRIPOS>BOND
     1    1    2       1
     2    2    3      ar
     3    2    7      ar
     4    3    4      ar
     5    4    5      ar
     6    5    6      ar
     7    5    8       1
     8    6    7      ar
     9    8    9       2
    10    8   10      am
    11   10   11       1
    12   11   12       1
    13   11   17       1
    14   12   13       1
    15   12   18       1
    16   13   14       1
    17   14   15       1
    18   15   16       1
    19   16   17       1
    20   18   19       1
    21   19   20       2
    22   19   21       1
    23   21   22      ar
    24   21   26      ar
    25   22   23      ar
    26   23   24      ar
    27   24   25      ar
    28   24   27       1
    29   25   26      ar
    30    1   28       1
    31    3   29       1
    32    4   30       1
    33    6   31       1
    34    7   32       1
    35   10   33       1
    36   11   34       1
    37   12   35       1
    38   13   36       1
    39   13   37       1
    40   14   38       1
    41   14   39       1
    42   15   40       1
    43   15   41       1
    44   16   42       1
    45   17   43       1
    46   17   44       1
    47   22   45       1
    48   23   46       1
    49   25   47       1
    50   26   48       1
    51   27   49       1
    52   16   50       1
@<TRIPOS>SUBSTRUCTURE
     1 B1L351      1 GROUP             4 A     B1L     0 **** B1L A 351
