@<TRIPOS>MOLECULE
3srz_UPG_1_ligand
   58    60     1     0     0
SMALL
NO_CHARGES


@<TRIPOS>ATOM
     1 N1         -31.2290   -40.6180    -9.9780 N.pl3        1 UPG556   0.0000
     2 C2         -30.9410   -39.9700    -8.7610 C.2          1 UPG556   0.0000
     3 N3         -29.7480   -40.1210    -8.1600 N.pl3        1 UPG556   0.0000
     4 C4         -28.8080   -40.8880    -8.7270 C.2          1 UPG556   0.0000
     5 C5         -29.0700   -41.5370    -9.9400 C.2          1 UPG556   0.0000
     6 C6         -30.3060   -41.3900   -10.5640 C.2          1 UPG556   0.0000
     7 O2         -31.8270   -39.2560    -8.2490 O.2          1 UPG556   0.0000
     8 O4         -27.6950   -41.0180    -8.1640 O.2          1 UPG556   0.0000
     9 C1C        -32.5480   -40.4040   -10.5700 C.3          1 UPG556   0.0000
    10 C2C        -32.5980   -38.9690   -11.0570 C.3          1 UPG556   0.0000
    11 O2C        -33.8380   -38.3740   -10.6340 O.3          1 UPG556   0.0000
    12 C3C        -32.4390   -39.1530   -12.5730 C.3          1 UPG556   0.0000
    13 C4C        -33.1360   -40.4700   -12.8370 C.3          1 UPG556   0.0000
    14 O4C        -32.7470   -41.2560   -11.7090 O.3          1 UPG556   0.0000
    15 O3C        -32.9770   -38.1100   -13.3910 O.3          1 UPG556   0.0000
    16 C5C        -32.7090   -41.1010   -14.1550 C.3          1 UPG556   0.0000
    17 O5C        -31.3850   -41.6240   -14.0730 O.3          1 UPG556   0.0000
    18 PA         -30.5340   -41.7670   -15.4240 P.3          1 UPG556   0.0000
    19 O1A        -30.9680   -40.7170   -16.4200 O.co2        1 UPG556   0.0000
    20 O2A        -29.0840   -41.5900   -15.0690 O.co2        1 UPG556  -1.0000
    21 O3A        -30.7720   -43.2850   -15.9140 O.3          1 UPG556   0.0000
    22 PB         -31.6160   -43.7850   -17.2020 P.3          1 UPG556   0.0000
    23 O1B        -31.8110   -42.7010   -18.2360 O.co2        1 UPG556   0.0000
    24 O2B        -30.9840   -45.0060   -17.8260 O.co2        1 UPG556  -1.0000
    25 O3B        -33.0240   -44.1900   -16.5340 O.3          1 UPG556   0.0000
    26 C1'        -34.1180   -44.7640   -17.2460 C.3          1 UPG556   0.0000
    27 C2'        -35.2110   -43.7160   -17.3360 C.3          1 UPG556   0.0000
    28 C3'        -35.4490   -43.1670   -15.9330 C.3          1 UPG556   0.0000
    29 C4'        -35.9010   -44.2980   -15.0160 C.3          1 UPG556   0.0000
    30 C5'        -34.9220   -45.4660   -15.0980 C.3          1 UPG556   0.0000
    31 C6'        -35.5030   -46.6480   -14.3310 C.3          1 UPG556   0.0000
    32 O2'        -34.8200   -42.6570   -18.2120 O.3          1 UPG556   0.0000
    33 O3'        -36.4560   -42.1690   -15.9930 O.3          1 UPG556   0.0000
    34 O4'        -35.9990   -43.8540   -13.6590 O.3          1 UPG556   0.0000
    35 O5'        -34.6490   -45.8350   -16.4630 O.3          1 UPG556   0.0000
    36 O6'        -36.8400   -46.9160   -14.7750 O.3          1 UPG556   0.0000
    37 H1         -29.5629   -39.6615    -7.2913 H            1 UPG556   0.0000
    38 H2         -28.3656   -42.1091   -10.3602 H            1 UPG556   0.0000
    39 H3         -30.4996   -41.8507   -11.4302 H            1 UPG556   0.0000
    40 H1C        -33.2629   -40.5636    -9.8893 H            1 UPG556   0.0000
    41 H2C        -31.8245   -38.4528   -10.6892 H            1 UPG556   0.0000
    42 H6         -33.6470   -37.5840   -10.0514 H            1 UPG556   0.0000
    43 H3C        -31.4669   -39.2566   -12.7834 H            1 UPG556   0.0000
    44 H4C        -34.1270   -40.3360   -12.8309 H            1 UPG556   0.0000
    45 H9         -33.6778   -38.4885   -13.9957 H            1 UPG556   0.0000
    46 H5C1       -32.7413   -40.4069   -14.8742 H            1 UPG556   0.0000
    47 H5C2       -33.3395   -41.8438   -14.3801 H            1 UPG556   0.0000
    48 H1'        -33.8384   -45.0787   -18.1531 H            1 UPG556   0.0000
    49 H2'        -36.0512   -44.1381   -17.6765 H            1 UPG556   0.0000
    50 H3'        -34.6023   -42.7681   -15.5810 H            1 UPG556   0.0000
    51 H4'        -36.8015   -44.6131   -15.3158 H            1 UPG556   0.0000
    52 H5'        -34.0636   -45.1941   -14.6630 H            1 UPG556   0.0000
    53 H6'1       -35.5157   -46.4341   -13.3542 H            1 UPG556   0.0000
    54 H6'2       -34.9345   -47.4555   -14.4880 H            1 UPG556   0.0000
    55 H19        -33.9064   -42.8435   -18.5734 H            1 UPG556   0.0000
    56 H20        -36.0324   -41.2772   -16.1523 H            1 UPG556   0.0000
    57 H21        -36.9382   -43.9720   -13.3367 H            1 UPG556   0.0000
    58 H6'        -37.4715   -46.8247   -14.0050 H            1 UPG556   0.0000
@<TRIPOS>BOND
     1    1    2       1
     2    1    6       1
     3    1    9       1
     4    2    3       1
     5    2    7       2
     6    3    4       1
     7    4    5       1
     8    4    8       2
     9    5    6       2
    10    9   10       1
    11    9   14       1
    12   10   11       1
    13   10   12       1
    14   12   13       1
    15   12   15       1
    16   13   14       1
    17   13   16       1
    18   16   17       1
    19   17   18       1
    20   18   19      ar
    21   18   20      ar
    22   18   21       1
    23   21   22       1
    24   22   23      ar
    25   22   24      ar
    26   22   25       1
    27   25   26       1
    28   26   27       1
    29   26   35       1
    30   27   28       1
    31   27   32       1
    32   28   29       1
    33   28   33       1
    34   29   30       1
    35   29   34       1
    36   30   31       1
    37   30   35       1
    38   31   36       1
    39    3   37       1
    40    5   38       1
    41    6   39       1
    42    9   40       1
    43   10   41       1
    44   11   42       1
    45   12   43       1
    46   13   44       1
    47   15   45       1
    48   16   46       1
    49   16   47       1
    50   36   58       1
    51   34   57       1
    52   26   48       1
    53   27   49       1
    54   28   50       1
    55   29   51       1
    56   30   52       1
    57   31   53       1
    58   31   54       1
    59   32   55       1
    60   33   56       1
@<TRIPOS>SUBSTRUCTURE
     1 UPG556      1 GROUP             4 A     UPG     0 **** UPG A 556
