@<TRIPOS>MOLECULE
2gf6_COA_2_ligand
   80    82     1     0     0
SMALL
NO_CHARGES


@<TRIPOS>ATOM
     1 N1A         -2.3090    35.2950    24.5680 N.ar         1 COA500   0.0000
     2 C2A         -1.6190    36.1550    23.7270 C.ar         1 COA500   0.0000
     3 N3A         -1.7330    37.5240    23.8830 N.ar         1 COA500   0.0000
     4 C4A         -2.5260    38.0300    24.8500 C.ar         1 COA500   0.0000
     5 C5A         -3.2350    37.1930    25.7000 C.ar         1 COA500   0.0000
     6 C6A         -3.1240    35.8180    25.5630 C.ar         1 COA500   0.0000
     7 N6A         -3.7900    35.0250    26.3980 N.pl3        1 COA500   0.0000
     8 N7A         -3.9410    37.9590    26.5550 N.2          1 COA500   0.0000
     9 C8A         -3.6960    39.2500    26.2730 C.2          1 COA500   0.0000
    10 N9A         -2.8250    39.3110    25.2150 N.pl3        1 COA500   0.0000
    11 C1B         -2.3780    40.5240    24.4920 C.3          1 COA500   0.0000
    12 C2B         -3.5460    41.3870    24.0300 C.3          1 COA500   0.0000
    13 O2B         -3.9720    41.0640    22.7350 O.3          1 COA500   0.0000
    14 C3B         -2.9520    42.7690    24.1050 C.3          1 COA500   0.0000
    15 O3B         -2.1670    43.0130    22.9720 O.3          1 COA500   0.0000
    16 P3B         -2.5370    44.2720    22.0490 P.3          1 COA500   0.0000
    17 O7A         -1.5710    44.2680    20.8880 O.co2        1 COA500   0.0000
    18 O8A         -2.4110    45.5610    22.8650 O.co2        1 COA500  -1.0000
    19 O9A         -3.9470    44.0320    21.5360 O.co2        1 COA500  -1.0000
    20 C4B         -2.0360    42.7030    25.3030 C.3          1 COA500   0.0000
    21 O4B         -1.5810    41.3610    25.3190 O.3          1 COA500   0.0000
    22 C5B         -2.7690    43.0270    26.5970 C.3          1 COA500   0.0000
    23 O5B         -4.0940    42.5450    26.5760 O.3          1 COA500   0.0000
    24 P1A         -5.3030    43.4950    27.0540 P.3          1 COA500   0.0000
    25 O1A         -6.5810    42.6960    27.1980 O.co2        1 COA500   0.0000
    26 O2A         -5.5020    44.6380    26.0940 O.co2        1 COA500  -1.0000
    27 O3A         -4.8070    43.9500    28.5270 O.3          1 COA500   0.0000
    28 P2A         -5.6610    44.8720    29.5500 P.3          1 COA500   0.0000
    29 O4A         -7.1160    44.8780    29.1780 O.co2        1 COA500   0.0000
    30 O5A         -5.0290    46.2550    29.6090 O.co2        1 COA500  -1.0000
    31 O6A         -5.4990    44.1690    30.9790 O.3          1 COA500   0.0000
    32 CBP         -5.5380    42.3970    32.4680 C.3          1 COA500   0.0000
    33 CCP         -5.1150    42.8250    31.0780 C.3          1 COA500   0.0000
    34 CDP         -6.9400    42.9400    32.7880 C.3          1 COA500   0.0000
    35 CEP         -4.5150    42.9780    33.4450 C.3          1 COA500   0.0000
    36 CAP         -5.6290    40.8740    32.4740 C.3          1 COA500   0.0000
    37 OAP         -6.7030    40.4630    31.6640 O.3          1 COA500   0.0000
    38 C9P         -5.8460    40.3050    33.8460 C.2          1 COA500   0.0000
    39 O9P         -5.9360    41.1000    34.9840 O.2          1 COA500   0.0000
    40 N8P         -5.9200    38.9990    33.8960 N.am         1 COA500   0.0000
    41 C7P         -6.1060    38.3330    35.1550 C.3          1 COA500   0.0000
    42 C6P         -4.7520    38.0470    35.7500 C.3          1 COA500   0.0000
    43 C5P         -4.9230    36.9780    36.7800 C.2          1 COA500   0.0000
    44 O5P         -5.7200    37.1200    37.7150 O.2          1 COA500   0.0000
    45 N4P         -4.1980    35.9100    36.5490 N.am         1 COA500   0.0000
    46 C3P         -3.2380    35.4220    37.4840 C.3          1 COA500   0.0000
    47 C2P         -3.8520    34.3140    38.2990 C.3          1 COA500   0.0000
    48 S1P         -3.1690    32.6850    37.9640 S.3          1 COA500   0.0000
    49 H2A         -1.0363    35.7833    23.0043 H            1 COA500   0.0000
    50 H6A1        -4.3717    35.4222    27.1078 H            1 COA500   0.0000
    51 H6A2        -3.7089    34.0317    26.3159 H            1 COA500   0.0000
    52 H8A         -4.0842    40.0357    26.7545 H            1 COA500   0.0000
    53 H1B         -1.8414    40.2484    23.6944 H            1 COA500   0.0000
    54 H2B         -4.3081    41.3056    24.6723 H            1 COA500   0.0000
    55 H7          -3.8807    41.8658    22.1444 H            1 COA500   0.0000
    56 H3B         -3.6585    43.4672    24.2203 H            1 COA500   0.0000
    57 H4B         -1.2638    43.3263    25.1800 H            1 COA500   0.0000
    58 H5B1        -2.7862    44.0192    26.7208 H            1 COA500   0.0000
    59 H5B2        -2.2816    42.6041    27.3610 H            1 COA500   0.0000
    60 HCP1        -4.1253    42.7334    30.9681 H            1 COA500   0.0000
    61 HCP2        -5.5798    42.2748    30.3843 H            1 COA500   0.0000
    62 HDP1        -7.2076    42.6510    33.7072 H            1 COA500   0.0000
    63 HDP2        -6.9289    43.9389    32.7426 H            1 COA500   0.0000
    64 HDP3        -7.5955    42.5833    32.1224 H            1 COA500   0.0000
    65 HEP1        -4.7600    42.7167    34.3787 H            1 COA500   0.0000
    66 HEP2        -3.6063    42.6222    33.2268 H            1 COA500   0.0000
    67 HEP3        -4.5098    43.9750    33.3684 H            1 COA500   0.0000
    68 HAP         -4.7809    40.4988    32.0998 H            1 COA500   0.0000
    69 H21         -7.3585    39.9475    32.2159 H            1 COA500   0.0000
    70 H8P         -5.8468    38.4632    33.0548 H            1 COA500   0.0000
    71 H7P1        -6.5999    37.4752    35.0129 H            1 COA500   0.0000
    72 H7P2        -6.6287    38.9202    35.7731 H            1 COA500   0.0000
    73 H6P1        -4.3858    38.8744    36.1758 H            1 COA500   0.0000
    74 H6P2        -4.1256    37.7344    35.0359 H            1 COA500   0.0000
    75 H4P         -4.3228    35.4201    35.6862 H            1 COA500   0.0000
    76 H3P1        -2.9553    36.1651    38.0905 H            1 COA500   0.0000
    77 H3P2        -2.4410    35.0719    36.9919 H            1 COA500   0.0000
    78 H2P1        -4.8326    34.2886    38.1049 H            1 COA500   0.0000
    79 H2P2        -3.7091    34.5207    39.2669 H            1 COA500   0.0000
    80 H1P         -3.6253    32.0072    38.5406 H            1 COA500   0.0000
@<TRIPOS>BOND
     1    1    2      ar
     2    1    6      ar
     3    2    3      ar
     4    3    4      ar
     5    4    5      ar
     6    4   10       1
     7    5    6      ar
     8    5    8       1
     9    6    7       1
    10    8    9       2
    11    9   10       1
    12   10   11       1
    13   11   12       1
    14   11   21       1
    15   12   13       1
    16   12   14       1
    17   14   15       1
    18   14   20       1
    19   15   16       1
    20   16   17      ar
    21   16   18      ar
    22   16   19      ar
    23   20   21       1
    24   20   22       1
    25   22   23       1
    26   23   24       1
    27   24   25      ar
    28   24   26      ar
    29   24   27       1
    30   27   28       1
    31   28   29      ar
    32   28   30      ar
    33   28   31       1
    34   31   33       1
    35   32   33       1
    36   32   34       1
    37   32   35       1
    38   32   36       1
    39   36   37       1
    40   36   38       1
    41   38   39       2
    42   38   40      am
    43   40   41       1
    44   41   42       1
    45   42   43       1
    46   43   44       2
    47   43   45      am
    48   45   46       1
    49   46   47       1
    50   47   48       1
    51    2   49       1
    52    7   50       1
    53    7   51       1
    54    9   52       1
    55   11   53       1
    56   12   54       1
    57   13   55       1
    58   14   56       1
    59   48   80       1
    60   47   79       1
    61   20   57       1
    62   22   58       1
    63   22   59       1
    64   47   78       1
    65   46   77       1
    66   33   60       1
    67   33   61       1
    68   34   62       1
    69   34   63       1
    70   34   64       1
    71   35   65       1
    72   35   66       1
    73   35   67       1
    74   36   68       1
    75   37   69       1
    76   40   70       1
    77   41   71       1
    78   41   72       1
    79   42   73       1
    80   42   74       1
    81   45   75       1
    82   46   76       1
@<TRIPOS>SUBSTRUCTURE
     1 COA500      1 GROUP             4 B     COA     0 **** COA B 500
