@<TRIPOS>MOLECULE
4ztv_TA7_1_ligand
   26    26     1     0     0
SMALL
NO_CHARGES


@<TRIPOS>ATOM
     1 CAA         17.5710   -83.9990   -17.1500 C.3          1 TA7400   0.0000
     2 OAB         18.9870   -77.1770   -16.1420 O.2          1 TA7400   0.0000
     3 OAC         18.9660   -75.0910   -14.5440 O.2          1 TA7400   0.0000
     4 FAD         16.5410   -73.6140   -13.8600 F            1 TA7400   0.0000
     5 FAE         16.0470   -75.3710   -12.6890 F            1 TA7400   0.0000
     6 FAF         17.8230   -74.1880   -12.2320 F            1 TA7400   0.0000
     7 CAG         16.5980   -81.1750   -14.9420 C.ar         1 TA7400   0.0000
     8 CAH         18.0400   -81.2550   -16.9080 C.ar         1 TA7400   0.0000
     9 CAI         16.8880   -79.8100   -14.7690 C.ar         1 TA7400   0.0000
    10 CAJ         18.3370   -79.8730   -16.7420 C.ar         1 TA7400   0.0000
    11 CAK         17.2620   -76.8300   -14.5750 C.3          1 TA7400   0.0000
    12 OAL         16.8560   -83.2710   -16.1370 O.3          1 TA7400   0.0000
    13 CAM         18.0770   -77.6610   -15.4960 C.2          1 TA7400   0.0000
    14 CAN         17.8670   -75.4820   -14.1530 C.2          1 TA7400   0.0000
    15 CAO         17.1730   -81.9030   -16.0070 C.ar         1 TA7400   0.0000
    16 CAP         17.7640   -79.1430   -15.6670 C.ar         1 TA7400   0.0000
    17 CAQ         17.0550   -74.6210   -13.2130 C.3          1 TA7400   0.0000
    18 HAA1        17.2677   -84.9519   -17.1524 H            1 TA7400   0.0000
    19 HAA2        17.3910   -83.5896   -18.0444 H            1 TA7400   0.0000
    20 HAA3        18.5516   -83.9618   -16.9577 H            1 TA7400   0.0000
    21 HAG         15.9790   -81.6345   -14.3051 H            1 TA7400   0.0000
    22 HAH         18.4472   -81.7662   -17.6649 H            1 TA7400   0.0000
    23 HAI         16.4756   -79.3061   -14.0100 H            1 TA7400   0.0000
    24 HAJ         18.9511   -79.4145   -17.3844 H            1 TA7400   0.0000
    25 HAK1        17.1014   -77.3643   -13.7451 H            1 TA7400   0.0000
    26 HAK2        16.3890   -76.6437   -15.0257 H            1 TA7400   0.0000
@<TRIPOS>BOND
     1    1   12       1
     2    2   13       2
     3    3   14       2
     4    4   17       1
     5    5   17       1
     6    6   17       1
     7    7    9      ar
     8    7   15      ar
     9    8   10      ar
    10    8   15      ar
    11    9   16      ar
    12   10   16      ar
    13   11   13       1
    14   11   14       1
    15   12   15       1
    16   13   16       1
    17   14   17       1
    18    1   18       1
    19    1   19       1
    20    1   20       1
    21    7   21       1
    22    8   22       1
    23    9   23       1
    24   10   24       1
    25   11   25       1
    26   11   26       1
@<TRIPOS>SUBSTRUCTURE
     1 TA7400      1 GROUP             4 A     TA7     0 **** TA7 A 400
