@<TRIPOS>MOLECULE
3ftq_GNP_3_ligand
   46    48     1     0     0
SMALL
NO_CHARGES


@<TRIPOS>ATOM
     1 PG          17.3650    25.9300    51.9990 P.3          1 GNP372   0.0000
     2 O1G         17.3120    27.4020    51.6600 O.co2        1 GNP372   0.0000
     3 O2G         18.6420    25.2590    51.5700 O.co2        1 GNP372  -1.0000
     4 O3G         16.0870    25.3410    51.4370 O.co2        1 GNP372  -1.0000
     5 N3B         17.2600    25.7060    53.5690 N.3          1 GNP372   0.0000
     6 PB          18.2990    26.3100    54.6040 P.3          1 GNP372   0.0000
     7 O1B         19.4590    25.4120    54.7460 O.co2        1 GNP372   0.0000
     8 O2B         18.5700    27.6970    54.1650 O.co2        1 GNP372  -1.0000
     9 O3A         17.6300    26.3510    55.9880 O.3          1 GNP372   0.0000
    10 PA          16.8170    27.5290    56.5690 P.3          1 GNP372   0.0000
    11 O1A         17.6510    28.2730    57.5370 O.co2        1 GNP372   0.0000
    12 O2A         16.1320    28.3350    55.5310 O.co2        1 GNP372  -1.0000
    13 O5'         15.6540    26.8850    57.4090 O.3          1 GNP372   0.0000
    14 C5'         15.9820    26.0730    58.5080 C.3          1 GNP372   0.0000
    15 C4'         14.8400    25.9960    59.4890 C.3          1 GNP372   0.0000
    16 O4'         15.3520    25.2210    60.5850 O.3          1 GNP372   0.0000
    17 C3'         14.4130    27.3380    60.0590 C.3          1 GNP372   0.0000
    18 O3'         13.1160    27.6490    59.5930 O.3          1 GNP372   0.0000
    19 C2'         14.4160    27.1650    61.5730 C.3          1 GNP372   0.0000
    20 O2'         13.1040    26.9330    62.0390 O.3          1 GNP372   0.0000
    21 C1'         15.2490    25.9100    61.8070 C.3          1 GNP372   0.0000
    22 N9          16.6130    26.1240    62.2600 N.pl3        1 GNP372   0.0000
    23 C8          17.4830    27.0810    61.7860 C.2          1 GNP372   0.0000
    24 N7          18.6560    27.0300    62.3660 N.2          1 GNP372   1.0000
    25 C5          18.5480    25.9760    63.2610 C.2          1 GNP372   0.0000
    26 C6          19.5010    25.4710    64.1560 C.2          1 GNP372   0.0000
    27 O6          20.6510    25.8750    64.3200 O.2          1 GNP372   0.0000
    28 N1          19.0350    24.4040    64.9160 N.pl3        1 GNP372   0.0000
    29 C2          17.7780    23.8830    64.8070 C.2          1 GNP372   0.0000
    30 N2          17.5420    22.8500    65.6220 N.pl3        1 GNP372   0.0000
    31 N3          16.8590    24.3420    63.9550 N.2          1 GNP372   0.0000
    32 C4          17.3070    25.3950    63.2160 C.2          1 GNP372   0.0000
    33 H3B         16.3654    26.0628    53.8380 H            1 GNP372   0.0000
    34 H5'1        16.7827    26.4557    58.9689 H            1 GNP372   0.0000
    35 H5'2        16.1940    25.1520    58.1813 H            1 GNP372   0.0000
    36 H4'         14.0577    25.5322    59.0732 H            1 GNP372   0.0000
    37 H3'         15.0596    28.0517    59.7895 H            1 GNP372   0.0000
    38 H6          12.4970    27.7492    60.3720 H            1 GNP372   0.0000
    39 H2'         14.8241    27.9579    62.0255 H            1 GNP372   0.0000
    40 H8          13.1181    26.8211    63.0326 H            1 GNP372   0.0000
    41 H1'         14.7766    25.3270    62.4680 H            1 GNP372   0.0000
    42 H10         17.2446    27.7432    61.0756 H            1 GNP372   0.0000
    43 H11         19.6578    23.9938    65.5822 H            1 GNP372   0.0000
    44 H12         16.6484    22.4012    65.6145 H            1 GNP372   0.0000
    45 H13         18.2591    22.5260    66.2391 H            1 GNP372   0.0000
    46 H14         19.4486    27.6170    62.2012 H            1 GNP372   0.0000
@<TRIPOS>BOND
     1    1    2      ar
     2    1    3      ar
     3    1    4      ar
     4    1    5       1
     5    5    6       1
     6    6    7      ar
     7    6    8      ar
     8    6    9       1
     9    9   10       1
    10   10   11      ar
    11   10   12      ar
    12   10   13       1
    13   13   14       1
    14   14   15       1
    15   15   16       1
    16   15   17       1
    17   16   21       1
    18   17   18       1
    19   17   19       1
    20   19   20       1
    21   19   21       1
    22   21   22       1
    23   22   23       1
    24   22   32       1
    25   23   24       2
    26   24   25       1
    27   25   26       1
    28   25   32       2
    29   26   27       2
    30   26   28       1
    31   28   29       1
    32   29   30       1
    33   29   31       2
    34   31   32       1
    35   30   45       1
    36   30   44       1
    37    5   33       1
    38   28   43       1
    39   23   42       1
    40   14   34       1
    41   14   35       1
    42   15   36       1
    43   17   37       1
    44   18   38       1
    45   19   39       1
    46   20   40       1
    47   21   41       1
    48   24   46       1
@<TRIPOS>SUBSTRUCTURE
     1 GNP372      1 GROUP             4 C     GNP     0 **** GNP C 372
