@<TRIPOS>MOLECULE
4gah_0ET_1_ligand
  112   114     1     0     0
SMALL
NO_CHARGES


@<TRIPOS>ATOM
     1 S1          23.0330    64.9430    39.9470 S.3          1 0ET301   0.0000
     2 C2          21.9410    63.6360    40.4030 C.3          1 0ET301   0.0000
     3 C3          22.7260    62.3530    40.6520 C.3          1 0ET301   0.0000
     4 N4          23.3900    62.0400    39.3870 N.am         1 0ET301   0.0000
     5 C5          22.9670    61.1310    38.5220 C.2          1 0ET301   0.0000
     6 O5          21.9480    60.4880    38.7520 O.2          1 0ET301   0.0000
     7 C6          23.7780    60.9520    37.2560 C.3          1 0ET301   0.0000
     8 C7          23.5400    59.5850    36.6050 C.3          1 0ET301   0.0000
     9 N8          24.5120    59.4930    35.5210 N.am         1 0ET301   0.0000
    10 C9          24.3830    59.8670    34.3050 C.2          1 0ET301   0.0000
    11 O9          23.2420    60.4200    33.8830 O.2          1 0ET301   0.0000
    12 CP          23.5950    64.9520    41.6210 C.3          1 0ET301   0.0000
    13 C10         25.5300    59.6670    33.3430 C.3          1 0ET301   0.0000
    14 O10         26.4050    58.6280    33.7890 O.3          1 0ET301   0.0000
    15 C11         26.3750    60.9250    33.2490 C.3          1 0ET301   0.0000
    16 C12         27.4330    60.7610    32.1570 C.3          1 0ET301   0.0000
    17 C13         27.0550    61.1280    34.6040 C.3          1 0ET301   0.0000
    18 C14         25.4590    62.0860    32.9000 C.3          1 0ET301   0.0000
    19 N1A         33.5580    57.0260    37.0730 N.ar         1 0ET301   0.0000
    20 O1A         29.0190    58.0170    29.9970 O.co2        1 0ET301   0.0000
    21 P1A         29.7180    59.1310    29.2550 P.3          1 0ET301   0.0000
    22 C1M         22.8240    65.8750    42.5820 C.3          1 0ET301   0.0000
    23 O1M         21.4100    65.8890    42.3430 O.3          1 0ET301   0.0000
    24 C1X         33.5720    58.9300    32.2590 C.3          1 0ET301   0.0000
    25 C2A         34.6040    57.3450    36.2890 C.ar         1 0ET301   0.0000
    26 O2A         29.9530    59.0100    27.7640 O.co2        1 0ET301  -1.0000
    27 P2A         27.3840    60.7430    29.4240 P.3          1 0ET301   0.0000
    28 C2M         23.3740    67.2930    42.5180 C.3          1 0ET301   0.0000
    29 C2X         33.4900    58.0530    31.0240 C.3          1 0ET301   0.0000
    30 O2X         34.5060    57.0490    31.0840 O.3          1 0ET301   0.0000
    31 N3A         34.4350    57.8280    35.0480 N.ar         1 0ET301   0.0000
    32 O3A         28.9790    60.5250    29.5700 O.3          1 0ET301   0.0000
    33 C3M         22.4400    68.2670    43.2280 C.3          1 0ET301   0.0000
    34 C3X         33.7840    59.0540    29.9310 C.3          1 0ET301   0.0000
    35 O3X         35.1980    59.1630    29.9110 O.3          1 0ET301   0.0000
    36 P3X         36.0770    59.1030    28.5630 P.3          1 0ET301   0.0000
    37 C4A         33.1870    58.0000    34.5440 C.ar         1 0ET301   0.0000
    38 O4A         26.8020    59.6000    28.6300 O.co2        1 0ET301   0.0000
    39 C4M         22.2480    69.4140    42.2730 C.2          1 0ET301   0.0000
    40 C4X         33.2210    60.3790    30.4340 C.3          1 0ET301   0.0000
    41 O4X         33.1450    60.2470    31.8510 O.3          1 0ET301   0.0000
    42 C5A         32.0860    57.6690    35.3220 C.ar         1 0ET301   0.0000
    43 O5A         27.1560    62.1790    28.9940 O.co2        1 0ET301  -1.0000
    44 C5M         21.0520    69.9160    41.9940 C.2          1 0ET301   0.0000
    45 C5X         31.8180    60.6280    29.9030 C.3          1 0ET301   0.0000
    46 O5X         31.1540    59.3700    29.9350 O.3          1 0ET301   0.0000
    47 C6A         32.2860    57.1680    36.6190 C.ar         1 0ET301   0.0000
    48 N6A         31.2310    56.8290    37.4200 N.pl3        1 0ET301   0.0000
    49 O6A         26.7660    60.5390    30.9120 O.3          1 0ET301   0.0000
    50 C6M         21.0210    71.0600    41.0070 C.3          1 0ET301   0.0000
    51 N7A         30.9860    57.9460    34.5850 N.2          1 0ET301   0.0000
    52 O7A         35.4290    58.0140    27.7320 O.co2        1 0ET301   0.0000
    53 C7M         20.4330    70.5420    39.6970 C.3          1 0ET301   0.0000
    54 C8A         31.3960    58.4240    33.3880 C.2          1 0ET301   0.0000
    55 O8A         37.4640    58.7450    29.0560 O.co2        1 0ET301  -1.0000
    56 C8M         21.5130    70.3050    38.6470 C.3          1 0ET301   0.0000
    57 N9A         32.7330    58.4480    33.3730 N.pl3        1 0ET301   0.0000
    58 O9A         35.9610    60.5160    28.0220 O.co2        1 0ET301  -1.0000
    59 C9M         20.9010    70.3150    37.2480 C.3          1 0ET301   0.0000
    60 CAM         21.0480    68.9680    36.5710 C.3          1 0ET301   0.0000
    61 H1          21.2838    63.4826    39.6650 H            1 0ET301   0.0000
    62 H2          21.4520    63.8907    41.2373 H            1 0ET301   0.0000
    63 H3          22.1078    61.6118    40.9135 H            1 0ET301   0.0000
    64 H4          23.4025    62.4935    41.3749 H            1 0ET301   0.0000
    65 H5          24.2210    62.5476    39.1596 H            1 0ET301   0.0000
    66 H6          24.7487    61.0372    37.4805 H            1 0ET301   0.0000
    67 H7          23.5222    61.6674    36.6057 H            1 0ET301   0.0000
    68 H8          22.6089    59.5271    36.2449 H            1 0ET301   0.0000
    69 H9          23.6869    58.8517    37.2689 H            1 0ET301   0.0000
    70 H10         25.3931    59.0847    35.7598 H            1 0ET301   0.0000
    71 HP1         24.5527    65.2398    41.6215 H            1 0ET301   0.0000
    72 HP2         23.5274    64.0182    41.9723 H            1 0ET301   0.0000
    73 H13         25.1714    59.4367    32.4384 H            1 0ET301   0.0000
    74 H14         25.8954    57.7705    33.8598 H            1 0ET301   0.0000
    75 H15         28.0197    59.9797    32.3698 H            1 0ET301   0.0000
    76 H16         27.9896    61.5897    32.0989 H            1 0ET301   0.0000
    77 H17         27.6206    61.9521    34.5730 H            1 0ET301   0.0000
    78 H18         26.3587    61.2282    35.3147 H            1 0ET301   0.0000
    79 H19         27.6302    60.3364    34.8102 H            1 0ET301   0.0000
    80 H20         25.9968    62.9264    32.8331 H            1 0ET301   0.0000
    81 H21         25.0116    61.9059    32.0240 H            1 0ET301   0.0000
    82 H22         24.7658    62.1897    33.6132 H            1 0ET301   0.0000
    83 H1M         22.9706    65.5351    43.5110 H            1 0ET301   0.0000
    84 H24         21.2342    65.7214    41.3729 H            1 0ET301   0.0000
    85 H1X         34.5234    58.9757    32.5636 H            1 0ET301   0.0000
    86 H2A         35.5318    57.2189    36.6401 H            1 0ET301   0.0000
    87 H2M1        23.4666    67.5661    41.5605 H            1 0ET301   0.0000
    88 H2M2        24.2708    67.3173    42.9598 H            1 0ET301   0.0000
    89 H2X         32.5808    57.6502    30.9188 H            1 0ET301   0.0000
    90 H30         35.3389    57.3912    30.6491 H            1 0ET301   0.0000
    91 H3M1        22.8530    68.5880    44.0803 H            1 0ET301   0.0000
    92 H3M2        21.5637    67.8281    43.4268 H            1 0ET301   0.0000
    93 H3X         33.4044    58.7834    29.0463 H            1 0ET301   0.0000
    94 H4M         23.0521    69.8128    41.8321 H            1 0ET301   0.0000
    95 H4X         33.8280    61.1337    30.1852 H            1 0ET301   0.0000
    96 H5M         20.2179    69.5575    42.4133 H            1 0ET301   0.0000
    97 H5X1        31.8582    60.9753    28.9661 H            1 0ET301   0.0000
    98 H5X2        31.3396    61.2876    30.4828 H            1 0ET301   0.0000
    99 H6A1        30.2947    56.9339    37.0848 H            1 0ET301   0.0000
   100 H6A2        31.3957    56.4761    38.3411 H            1 0ET301   0.0000
   101 H6M1        21.9491    71.3984    40.8514 H            1 0ET301   0.0000
   102 H6M2        20.4518    71.8004    41.3644 H            1 0ET301   0.0000
   103 H7M1        19.7820    71.2149    39.3458 H            1 0ET301   0.0000
   104 H7M2        19.9584    69.6797    39.8737 H            1 0ET301   0.0000
   105 H8A         30.7989    58.7115    32.6391 H            1 0ET301   0.0000
   106 H8M1        21.9450    69.4184    38.8120 H            1 0ET301   0.0000
   107 H8M2        22.2007    71.0281    38.7117 H            1 0ET301   0.0000
   108 H9M1        21.3630    71.0089    36.6957 H            1 0ET301   0.0000
   109 H9M2        19.9290    70.5388    37.3196 H            1 0ET301   0.0000
   110 HAM1        20.6387    69.0067    35.6594 H            1 0ET301   0.0000
   111 HAM2        22.0182    68.7391    36.4913 H            1 0ET301   0.0000
   112 HAM3        20.5842    68.2690    37.1153 H            1 0ET301   0.0000
@<TRIPOS>BOND
     1    1    2       1
     2    1   12       1
     3    2    3       1
     4    3    4       1
     5    4    5      am
     6    5    6       2
     7    5    7       1
     8    7    8       1
     9    8    9       1
    10    9   10      am
    11   10   11       2
    12   10   13       1
    13   12   22       1
    14   13   14       1
    15   13   15       1
    16   15   16       1
    17   15   17       1
    18   15   18       1
    19   16   49       1
    20   19   25      ar
    21   19   47      ar
    22   20   21      ar
    23   21   26      ar
    24   21   32       1
    25   21   46       1
    26   22   23       1
    27   22   28       1
    28   24   29       1
    29   24   41       1
    30   24   57       1
    31   25   31      ar
    32   27   32       1
    33   27   38      ar
    34   27   43      ar
    35   27   49       1
    36   28   33       1
    37   29   30       1
    38   29   34       1
    39   31   37      ar
    40   33   39       1
    41   34   35       1
    42   34   40       1
    43   35   36       1
    44   36   52      ar
    45   36   55      ar
    46   36   58      ar
    47   37   42      ar
    48   37   57       1
    49   39   44       2
    50   40   41       1
    51   40   45       1
    52   42   47      ar
    53   42   51       1
    54   44   50       1
    55   45   46       1
    56   47   48       1
    57   50   53       1
    58   51   54       2
    59   53   56       1
    60   54   57       1
    61   56   59       1
    62   59   60       1
    63    2   61       1
    64    2   62       1
    65    3   63       1
    66    3   64       1
    67    4   65       1
    68    7   66       1
    69    7   67       1
    70    8   68       1
    71    8   69       1
    72    9   70       1
    73   12   71       1
    74   12   72       1
    75   13   73       1
    76   14   74       1
    77   16   75       1
    78   16   76       1
    79   17   77       1
    80   17   78       1
    81   17   79       1
    82   18   80       1
    83   18   81       1
    84   18   82       1
    85   60  112       1
    86   22   83       1
    87   23   84       1
    88   24   85       1
    89   25   86       1
    90   28   87       1
    91   28   88       1
    92   29   89       1
    93   30   90       1
    94   33   91       1
    95   33   92       1
    96   34   93       1
    97   60  111       1
    98   39   94       1
    99   40   95       1
   100   44   96       1
   101   45   97       1
   102   45   98       1
   103   48   99       1
   104   48  100       1
   105   50  101       1
   106   50  102       1
   107   60  110       1
   108   53  103       1
   109   53  104       1
   110   54  105       1
   111   59  109       1
   112   56  106       1
   113   56  107       1
   114   59  108       1
@<TRIPOS>SUBSTRUCTURE
     1 0ET301      1 GROUP             4 A     0ET     0 **** 0ET A 301
