@<TRIPOS>MOLECULE
3pft_FMN_2_ligand
   48    50     1     0     0
SMALL
NO_CHARGES


@<TRIPOS>ATOM
     1 N1          61.2070    34.7800    27.8520 N.2          1 FMN402   0.0000
     2 C2          61.7970    35.9660    27.2250 C.2          1 FMN402   0.0000
     3 O2          63.1610    36.1370    27.3050 O.2          1 FMN402   0.0000
     4 N3          61.0250    36.8470    26.4570 N.pl3        1 FMN402   0.0000
     5 C4          59.6830    36.5930    26.3210 C.2          1 FMN402   0.0000
     6 O4          58.8850    37.4170    25.5460 O.2          1 FMN402   0.0000
     7 C4A         59.1010    35.4610    26.9280 C.2          1 FMN402   0.0000
     8 N5          57.7030    35.2410    26.7770 N.2          1 FMN402   0.0000
     9 C5A         57.1550    34.0970    27.3660 C.ar         1 FMN402   0.0000
    10 C6          55.6600    33.8030    27.1770 C.ar         1 FMN402   0.0000
    11 C7          55.0520    32.6240    27.7880 C.ar         1 FMN402   0.0000
    12 C7M         53.5540    32.3390    27.5470 C.3          1 FMN402   0.0000
    13 C8          55.9090    31.6900    28.6010 C.ar         1 FMN402   0.0000
    14 C8M         55.3220    30.4090    29.2260 C.3          1 FMN402   0.0000
    15 C9          57.3820    31.9730    28.7880 C.ar         1 FMN402   0.0000
    16 C9A         57.9880    33.1850    28.1640 C.ar         1 FMN402   0.0000
    17 N10         59.3620    33.4370    28.3060 N.pl3        1 FMN402   0.0000
    18 C10         59.9170    34.5670    27.7020 C.2          1 FMN402   0.0000
    19 C1'         60.2710    32.5680    29.0650 C.3          1 FMN402   0.0000
    20 C2'         60.8450    31.4430    28.1490 C.2          1 FMN402   0.0000
    21 O2'         60.1750    31.0270    27.2330 O.2          1 FMN402   0.0000
    22 C3'         61.6530    30.4010    28.9670 C.3          1 FMN402   0.0000
    23 O3'         60.9360    30.0360    30.1180 O.3          1 FMN402   0.0000
    24 C4'         63.0660    30.8900    29.3170 C.3          1 FMN402   0.0000
    25 O4'         63.8320    31.3470    28.2230 O.3          1 FMN402   0.0000
    26 C5'         63.7720    29.7250    30.0470 C.3          1 FMN402   0.0000
    27 O5'         64.9050    30.0770    30.8020 O.3          1 FMN402   0.0000
    28 P           66.3720    29.9510    30.0530 P.3          1 FMN402   0.0000
    29 O1P         66.3740    30.8570    28.6950 O.co2        1 FMN402   0.0000
    30 O2P         67.4560    30.5080    31.1450 O.co2        1 FMN402  -1.0000
    31 O3P         66.6190    28.5380    29.7000 O.co2        1 FMN402  -1.0000
    32 H1          61.4420    37.6428    26.0179 H            1 FMN402   0.0000
    33 H2          55.0978    34.4240    26.6309 H            1 FMN402   0.0000
    34 H7M1        53.2920    31.5029    28.0290 H            1 FMN402   0.0000
    35 H7M2        53.0097    33.1052    27.8887 H            1 FMN402   0.0000
    36 H7M3        53.3899    32.2243    26.5672 H            1 FMN402   0.0000
    37 H8M1        56.0393    29.9225    29.7248 H            1 FMN402   0.0000
    38 H8M2        54.5848    30.6531    29.8560 H            1 FMN402   0.0000
    39 H8M3        54.9611    29.8203    28.5027 H            1 FMN402   0.0000
    40 H9          57.9481    31.3502    29.3280 H            1 FMN402   0.0000
    41 H1'1        59.7704    32.1510    29.8236 H            1 FMN402   0.0000
    42 H1'2        61.0259    33.1162    29.4250 H            1 FMN402   0.0000
    43 H3'         61.7494    29.5827    28.4003 H            1 FMN402   0.0000
    44 H13         60.7551    29.0527    30.1002 H            1 FMN402   0.0000
    45 H4'         62.9760    31.6467    29.9645 H            1 FMN402   0.0000
    46 H15         64.8017    31.1819    28.4029 H            1 FMN402   0.0000
    47 H5'1        64.0565    29.0581    29.3583 H            1 FMN402   0.0000
    48 H5'2        63.1092    29.3032    30.6657 H            1 FMN402   0.0000
@<TRIPOS>BOND
     1    1    2       1
     2    1   18       2
     3    2    3       2
     4    2    4       1
     5    4    5       1
     6    5    6       2
     7    5    7       1
     8    7    8       2
     9    7   18       1
    10    8    9       1
    11    9   10      ar
    12    9   16      ar
    13   10   11      ar
    14   11   12       1
    15   11   13      ar
    16   13   14       1
    17   13   15      ar
    18   15   16      ar
    19   16   17       1
    20   17   18       1
    21   17   19       1
    22   19   20       1
    23   20   21       2
    24   20   22       1
    25   22   23       1
    26   22   24       1
    27   24   25       1
    28   24   26       1
    29   26   27       1
    30   27   28       1
    31   28   29      ar
    32   28   30      ar
    33   28   31      ar
    34    4   32       1
    35   10   33       1
    36   12   34       1
    37   12   35       1
    38   12   36       1
    39   14   37       1
    40   14   38       1
    41   14   39       1
    42   15   40       1
    43   19   41       1
    44   19   42       1
    45   22   43       1
    46   23   44       1
    47   24   45       1
    48   25   46       1
    49   26   47       1
    50   26   48       1
@<TRIPOS>SUBSTRUCTURE
     1 FMN402      1 GROUP             4 B     FMN     0 **** FMN B 402
