@<TRIPOS>MOLECULE
4raw_ZZ7_1_ligand
   45    46     1     0     0
SMALL
NO_CHARGES


@<TRIPOS>ATOM
     1 O1          -1.9840     8.3800   -24.5930 O.co2        1 ZZ7301   0.0000
     2 C2          -1.7780     7.9790   -25.7770 C.2          1 ZZ7301   0.0000
     3 O2          -2.5710     7.2680   -26.4030 O.co2        1 ZZ7301  -1.0000
     4 C12         -0.4600     8.3680   -26.3980 C.3          1 ZZ7301   0.0000
     5 C6          -0.5190     9.4970   -27.4400 C.3          1 ZZ7301   0.0000
     6 C1          -1.2000     9.0110   -28.7120 C.3          1 ZZ7301   0.0000
     7 C16         -1.2210    10.7450   -26.8880 C.3          1 ZZ7301   0.0000
     8 S1           1.2290     9.7590   -27.7330 S.3          1 ZZ7301   0.0000
     9 N3           0.5730     8.7770   -25.4250 N.3          1 ZZ7301   0.0000
    10 C13          1.7480     9.3670   -26.0610 C.3          1 ZZ7301   0.0000
    11 C14          2.9360     8.3990   -26.0150 C.3          1 ZZ7301   0.0000
    12 C15          2.6070     6.9310   -26.2300 C.2          1 ZZ7301   0.0000
    13 O4           3.2510     6.2980   -27.1030 O.co2        1 ZZ7301   0.0000
    14 N1           3.9190     8.7940   -27.0080 N.am         1 ZZ7301   0.0000
    15 C3           4.9520     9.5810   -26.7250 C.2          1 ZZ7301   0.0000
    16 O3           5.1440    10.0800   -25.6140 O.2          1 ZZ7301   0.0000
    17 C4           5.9170     9.7950   -27.8730 C.3          1 ZZ7301   0.0000
    18 N2           7.2390    10.1740   -27.3960 N.4          1 ZZ7301   1.0000
    19 C5           5.4120    10.7000   -28.9370 C.ar         1 ZZ7301   0.0000
    20 C7           5.9140    10.5350   -30.2230 C.ar         1 ZZ7301   0.0000
    21 C8           5.4610    11.3430   -31.2560 C.ar         1 ZZ7301   0.0000
    22 C9           4.5040    12.3190   -31.0000 C.ar         1 ZZ7301   0.0000
    23 C10          3.9930    12.4870   -29.7210 C.ar         1 ZZ7301   0.0000
    24 C11          4.4390    11.6670   -28.6880 C.ar         1 ZZ7301   0.0000
    25 OXT          1.7480     6.3640   -25.5180 O.co2        1 ZZ7301  -1.0000
    26 H1          -0.1107     7.5575   -26.8682 H            1 ZZ7301   0.0000
    27 H2          -1.2307     9.7554   -29.3790 H            1 ZZ7301   0.0000
    28 H3          -0.6853     8.2430   -29.0931 H            1 ZZ7301   0.0000
    29 H4          -2.1313     8.7154   -28.4994 H            1 ZZ7301   0.0000
    30 H5          -1.2402    11.4553   -27.5916 H            1 ZZ7301   0.0000
    31 H6          -2.1570    10.5117   -26.6242 H            1 ZZ7301   0.0000
    32 H7          -0.7233    11.0812   -26.0884 H            1 ZZ7301   0.0000
    33 H8           1.9919    10.2117   -25.5846 H            1 ZZ7301   0.0000
    34 H9           3.3628     8.4854   -25.1148 H            1 ZZ7301   0.0000
    35 H10          3.8143     8.4597   -27.9446 H            1 ZZ7301   0.0000
    36 H11          6.0290     8.9005   -28.3059 H            1 ZZ7301   0.0000
    37 H12          7.8496    10.3071   -28.1767 H            1 ZZ7301   0.0000
    38 H13          7.1740    11.0249   -26.8748 H            1 ZZ7301   0.0000
    39 H14          6.6027     9.8328   -30.4038 H            1 ZZ7301   0.0000
    40 H15          5.8213    11.2240   -32.1812 H            1 ZZ7301   0.0000
    41 H16          4.1815    12.9045   -31.7438 H            1 ZZ7301   0.0000
    42 H17          3.3080    13.1933   -29.5421 H            1 ZZ7301   0.0000
    43 H18          4.0616    11.7716   -27.7679 H            1 ZZ7301   0.0000
    44 H19          0.8608     7.9715   -24.9070 H            1 ZZ7301   0.0000
    45 H20          7.6016     9.4503   -26.8088 H            1 ZZ7301   0.0000
@<TRIPOS>BOND
     1    1    2      ar
     2    2    3      ar
     3    2    4       1
     4    4    5       1
     5    4    9       1
     6    5    6       1
     7    5    7       1
     8    5    8       1
     9    8   10       1
    10    9   10       1
    11   10   11       1
    12   11   12       1
    13   11   14       1
    14   12   13      ar
    15   12   25      ar
    16   14   15      am
    17   15   16       2
    18   15   17       1
    19   17   18       1
    20   17   19       1
    21   19   20      ar
    22   19   24      ar
    23   20   21      ar
    24   21   22      ar
    25   22   23      ar
    26   23   24      ar
    27   24   43       1
    28    4   26       1
    29    6   27       1
    30    6   28       1
    31    6   29       1
    32    7   30       1
    33    7   31       1
    34    7   32       1
    35   18   45       1
    36   10   33       1
    37   11   34       1
    38    9   44       1
    39   14   35       1
    40   17   36       1
    41   18   37       1
    42   18   38       1
    43   20   39       1
    44   21   40       1
    45   22   41       1
    46   23   42       1
@<TRIPOS>SUBSTRUCTURE
     1 ZZ7301      1 GROUP             4 A     ZZ7     0 **** ZZ7 A 301
