@<TRIPOS>MOLECULE
./coach420/1ffq/ligand.pdb
 43 46 0 0 0
SMALL
GASTEIGER

@<TRIPOS>ATOM
      1  C1        28.2930   30.2060    6.7080 C.3     1  NAA1        0.2586
      2  C2        29.6590   30.6020    6.0910 C.3     1  NAA1        0.1842
      3  C3        29.4270   31.2580    4.6990 C.3     1  NAA1        0.2094
      4  C4        28.4750   30.3900    3.8070 C.3     1  NAA1        0.2136
      5  C5        27.1310   30.1550    4.5730 C.3     1  NAA1        0.1834
      6  C6        26.2270   29.1630    3.7560 C.3     1  NAA1        0.2142
      7  C7        31.4760   31.2970    7.5730 C.2     1  NAA1        0.2420
      8  C8        32.1170   32.3220    8.4080 C.3     1  NAA1        0.0964
      9  N2        30.2890   31.5620    6.9820 N.am    1  NAA1       -0.1992
     10  O3        28.8380   32.5510    4.8630 O.3     1  NAA1       -0.2183
     11  O4        28.1250   31.1030    2.6150 O.3     1  NAA1       -0.2176
     12  O5        27.4450   29.4520    5.8000 O.3     1  NAA1       -0.3262
     13  O6        24.9250   29.2350    4.3410 O.3     1  NAA1       -0.2176
     14  O7        31.9520   30.1510    7.5170 O.2     1  NAA1       -0.2733
     15  C1        26.5440   28.3830   11.2880 C.3     2  NAA2        0.2585
     16  C2        25.5620   28.7820   10.1070 C.3     2  NAA2        0.1841
     17  C3        26.3520   28.8080    8.7550 C.3     2  NAA2        0.2062
     18  C4        27.7000   29.5920    8.8700 C.3     2  NAA2        0.1795
     19  C5        28.5060   29.1000   10.1110 C.3     2  NAA2        0.1803
     20  C6        29.8390   29.8470   10.3250 C.3     2  NAA2        0.2141
     21  C7        23.2440   28.1990   10.4690 C.2     2  NAA2        0.2420
     22  C8        22.2420   27.2680   10.9950 C.3     2  NAA2        0.0964
     23  N2        24.4810   27.8170   10.0630 N.am    2  NAA2       -0.1992
     24  O3        26.6610   27.4290    8.3910 O.3     2  NAA2       -0.2184
     25  O4        28.5490   29.2900    7.7620 O.3     2  NAA2       -0.3264
     26  O5        27.6640   29.3140   11.2580 O.3     2  NAA2       -0.3263
     27  O6        30.4050   29.3090   11.5510 O.3     2  NAA2       -0.2176
     28  O7        22.8900   29.4080   10.4030 O.2     2  NAA2       -0.2733
     29  C1        25.9780   28.1180   16.0760 C.3     3  AMI3        0.1986
     30  C2        27.4370   28.5110   15.7600 C.3     3  AMI3        0.1802
     31  C3        27.4280   29.0130   14.3100 C.3     3  AMI3        0.2050
     32  C4        26.3040   28.1250   13.6740 C.3     3  AMI3        0.1561
     33  C5        25.2210   28.3560   14.7490 C.3     3  AMI3        0.1050
     34  C6        23.9440   27.5480   14.6260 C.3     3  AMI3        0.1882
     35  C7        26.6870   29.7970   17.4740 C.2     3  AMI3        0.2833
     36  C8        27.5740   31.8150   18.4880 C.3     3  AMI3        0.1166
     37  C9        25.3350   31.0460   18.9980 C.3     3  AMI3        0.1166
     38  N2        27.7560   29.4940   16.7240 N.2     3  AMI3       -0.2198
     39  N7        26.5230   30.9290   18.2040 N.pl3   3  AMI3       -0.2607
     40  O3        28.6730   28.7390   13.6710 O.3     3  AMI3       -0.2183
     41  O4        25.8460   28.7240   12.4700 O.3     3  AMI3       -0.3288
     42  O6        24.2070   26.1240   14.6340 O.3     3  AMI3       -0.2202
     43  O7        25.6050   29.1770   17.0000 O.2     3  AMI3       -0.4514
@<TRIPOS>BOND
     1     1    12    1
     2     1     2    1
     3     1    25    1
     4     2     3    1
     5     2     9    1
     6     3     4    1
     7     3    10    1
     8     4    11    1
     9     4     5    1
    10     5     6    1
    11     5    12    1
    12     6    13    1
    13     7     9   am
    14     7    14    2
    15     7     8    1
    16    15    16    1
    17    15    26    1
    18    15    41    1
    19    16    17    1
    20    16    23    1
    21    17    24    1
    22    17    18    1
    23    18    25    1
    24    18    19    1
    25    19    20    1
    26    19    26    1
    27    20    27    1
    28    21    23   am
    29    21    28    2
    30    21    22    1
    31    29    33    1
    32    29    30    1
    33    29    43    1
    34    30    31    1
    35    30    38    1
    36    31    40    1
    37    31    32    1
    38    32    41    1
    39    32    33    1
    40    33    34    1
    41    34    42    1
    42    35    38    2
    43    35    43    1
    44    35    39    1
    45    36    39    1
    46    37    39    1
