@<TRIPOS>MOLECULE
5cwa_0GA_1_ligand
   25    25     1     0     0
SMALL
NO_CHARGES


@<TRIPOS>ATOM
     1 OAD         48.2880   -45.7430    -6.5980 O.co2        1 0GA604   0.0000
     2 CAL         48.0450   -45.7600    -5.3950 C.2          1 0GA604   0.0000
     3 OAB         47.3270   -44.9110    -4.8460 O.co2        1 0GA604  -1.0000
     4 CAN         48.6520   -46.7910    -4.5970 C.2          1 0GA604   0.0000
     5 CAG         48.9660   -47.9780    -5.0890 C.2          1 0GA604   0.0000
     6 CAA         49.6090   -49.0380    -4.2340 C.3          1 0GA604   0.0000
     7 OAK         48.9160   -46.4920    -3.2360 O.3          1 0GA604   0.0000
     8 CAP         49.9310   -45.6600    -2.8940 C.ar         1 0GA604   0.0000
     9 CAI         50.9220   -45.2290    -3.7750 C.ar         1 0GA604   0.0000
    10 CAH         51.8990   -44.3700    -3.2980 C.ar         1 0GA604   0.0000
    11 CAJ         51.8650   -43.9410    -1.9760 C.ar         1 0GA604   0.0000
    12 CAO         49.9130   -45.2480    -1.5980 C.ar         1 0GA604   0.0000
    13 OAF         48.8750   -45.7110    -0.8310 O.3          1 0GA604   0.0000
    14 CAQ         50.8670   -44.3680    -1.1240 C.ar         1 0GA604   0.0000
    15 CAM         50.8150   -43.9230     0.3020 C.2          1 0GA604   0.0000
    16 OAC         49.9570   -44.4360     1.0340 O.co2        1 0GA604   0.0000
    17 OAE         51.6180   -43.0960     0.7710 O.co2        1 0GA604  -1.0000
    18 HAG         48.7722   -48.1759    -6.0499 H            1 0GA604   0.0000
    19 HAA1        49.7675   -49.8585    -4.7833 H            1 0GA604   0.0000
    20 HAA2        50.4815   -48.6987    -3.8823 H            1 0GA604   0.0000
    21 HAA3        49.0050   -49.2607    -3.4687 H            1 0GA604   0.0000
    22 HAI         50.9275   -45.5324    -4.7278 H            1 0GA604   0.0000
    23 HAH         52.6296   -44.0582    -3.9055 H            1 0GA604   0.0000
    24 HAJ         52.5704   -43.3172    -1.6394 H            1 0GA604   0.0000
    25 HAF         48.8056   -45.4440     0.1302 H            1 0GA604   0.0000
@<TRIPOS>BOND
     1    1    2      ar
     2    2    3      ar
     3    2    4       1
     4    4    5       2
     5    4    7       1
     6    5    6       1
     7    7    8       1
     8    8    9      ar
     9    8   12      ar
    10    9   10      ar
    11   10   11      ar
    12   11   14      ar
    13   12   13       1
    14   12   14      ar
    15   14   15       1
    16   15   16      ar
    17   15   17      ar
    18   13   25       1
    19    5   18       1
    20    6   19       1
    21    6   20       1
    22    6   21       1
    23    9   22       1
    24   10   23       1
    25   11   24       1
@<TRIPOS>SUBSTRUCTURE
     1 0GA604      1 GROUP             4 A     0GA     0 **** 0GA A 604
