@<TRIPOS>MOLECULE
1z0a_GDP_3_ligand
   40    42     1     0     0
SMALL
NO_CHARGES


@<TRIPOS>ATOM
     1 PB          76.8160    52.0340     3.3340 P.3          1 GDP3200   0.0000
     2 O1B         77.9060    52.0210     2.3060 O.co2        1 GDP3200   0.0000
     3 O2B         76.2800    50.6410     3.5890 O.co2        1 GDP3200  -1.0000
     4 O3B         77.4350    52.5660     4.6030 O.co2        1 GDP3200  -1.0000
     5 O3A         75.6510    52.9630     2.7420 O.3          1 GDP3200   0.0000
     6 PA          74.0640    52.6630     2.8020 P.3          1 GDP3200   0.0000
     7 O1A         73.6060    51.5980     1.8530 O.co2        1 GDP3200   0.0000
     8 O2A         73.6280    52.3840     4.2170 O.co2        1 GDP3200  -1.0000
     9 O5'         73.5260    54.0880     2.2990 O.3          1 GDP3200   0.0000
    10 C5'         73.7690    55.2930     3.0250 C.3          1 GDP3200   0.0000
    11 C4'         72.6080    56.2720     2.8200 C.3          1 GDP3200   0.0000
    12 O4'         72.4540    56.5920     1.4440 O.3          1 GDP3200   0.0000
    13 C3'         71.2650    55.7130     3.2460 C.3          1 GDP3200   0.0000
    14 O3'         70.5280    56.7930     3.8190 O.3          1 GDP3200   0.0000
    15 C2'         70.5980    55.2640     1.9620 C.3          1 GDP3200   0.0000
    16 O2'         69.1720    55.3710     2.0320 O.3          1 GDP3200   0.0000
    17 C1'         71.1670    56.2220     0.9380 C.3          1 GDP3200   0.0000
    18 N9          71.3540    55.6310    -0.4200 N.pl3        1 GDP3200   0.0000
    19 C8          72.0050    54.4920    -0.7290 C.2          1 GDP3200   0.0000
    20 N7          72.0060    54.2700    -2.0670 N.2          1 GDP3200   0.0000
    21 C5          71.3640    55.2940    -2.6360 C.2          1 GDP3200   0.0000
    22 C6          71.0030    55.6890    -4.0060 C.2          1 GDP3200   0.0000
    23 O6          71.3280    54.9700    -4.9720 O.2          1 GDP3200   0.0000
    24 N1          70.3260    56.8440    -4.1820 N.pl3        1 GDP3200   0.0000
    25 C2          69.9600    57.6270    -3.1520 C.2          1 GDP3200   0.0000
    26 N2          69.2720    58.7640    -3.4120 N.pl3        1 GDP3200   0.0000
    27 N3          70.2540    57.3260    -1.8620 N.2          1 GDP3200   0.0000
    28 C4          70.9390    56.1900    -1.5540 C.2          1 GDP3200   0.0000
    29 H5'1        74.6165    55.7113     2.6982 H            1 GDP3200   0.0000
    30 H5'2        73.8556    55.0813     3.9985 H            1 GDP3200   0.0000
    31 H4'         72.7917    57.1105     3.3330 H            1 GDP3200   0.0000
    32 H3'         71.3694    54.9558     3.8907 H            1 GDP3200   0.0000
    33 H5          69.6309    56.4646     4.1146 H            1 GDP3200   0.0000
    34 H2'         70.8644    54.3253     1.7434 H            1 GDP3200   0.0000
    35 H7          68.7563    54.6700     1.4525 H            1 GDP3200   0.0000
    36 H1'         70.5844    57.0323     0.8751 H            1 GDP3200   0.0000
    37 H9          72.4329    53.8874    -0.0571 H            1 GDP3200   0.0000
    38 H10         70.0884    57.1270    -5.1112 H            1 GDP3200   0.0000
    39 H11         68.9901    59.3607    -2.6607 H            1 GDP3200   0.0000
    40 H12         69.0458    59.0069    -4.3553 H            1 GDP3200   0.0000
@<TRIPOS>BOND
     1    1    2      ar
     2    1    3      ar
     3    1    4      ar
     4    1    5       1
     5    5    6       1
     6    6    7      ar
     7    6    8      ar
     8    6    9       1
     9    9   10       1
    10   10   11       1
    11   11   12       1
    12   11   13       1
    13   12   17       1
    14   13   14       1
    15   13   15       1
    16   15   16       1
    17   15   17       1
    18   17   18       1
    19   18   19       1
    20   18   28       1
    21   19   20       2
    22   20   21       1
    23   21   22       1
    24   21   28       2
    25   22   23       2
    26   22   24       1
    27   24   25       1
    28   25   26       1
    29   25   27       2
    30   27   28       1
    31   26   40       1
    32   26   39       1
    33   24   38       1
    34   10   29       1
    35   10   30       1
    36   11   31       1
    37   13   32       1
    38   14   33       1
    39   15   34       1
    40   16   35       1
    41   17   36       1
    42   19   37       1
@<TRIPOS>SUBSTRUCTURE
     1 GDP3200     1 GROUP             4 C     GDP     0 **** GDP C3200
