@<TRIPOS>MOLECULE
3o7b_SAH_1_ligand
   46    48     1     0     0
SMALL
NO_CHARGES


@<TRIPOS>ATOM
     1 N           -4.9870    44.8400    19.6180 N.4          1 SAH301   1.0000
     2 CA          -5.7840    43.8530    20.4040 C.3          1 SAH301   0.0000
     3 CB          -5.6530    42.4730    19.7730 C.3          1 SAH301   0.0000
     4 CG          -6.6100    42.2540    18.6040 C.3          1 SAH301   0.0000
     5 SD          -8.3570    42.4670    19.0630 S.3          1 SAH301   0.0000
     6 C           -5.3710    43.8170    21.8720 C.2          1 SAH301   0.0000
     7 O           -4.5480    44.6240    22.3110 O.2          1 SAH301   0.0000
     8 C5'         -9.2260    42.2050    17.4930 C.3          1 SAH301   0.0000
     9 C4'         -9.6090    43.4300    16.6700 C.3          1 SAH301   0.0000
    10 O4'        -10.7890    44.0430    17.1550 O.3          1 SAH301   0.0000
    11 C3'         -8.5920    44.5560    16.6830 C.3          1 SAH301   0.0000
    12 O3'         -7.5040    44.2870    15.8340 O.3          1 SAH301   0.0000
    13 C2'         -9.4340    45.7180    16.2250 C.3          1 SAH301   0.0000
    14 O2'         -9.6130    45.6810    14.8060 O.3          1 SAH301   0.0000
    15 C1'        -10.7750    45.4340    16.8760 C.3          1 SAH301   0.0000
    16 N9         -11.0360    46.1290    18.1650 N.pl3        1 SAH301   0.0000
    17 C8         -10.7700    45.6670    19.4340 C.2          1 SAH301   0.0000
    18 N7         -11.2050    46.5940    20.3280 N.2          1 SAH301   0.0000
    19 C5         -11.7680    47.6140    19.6480 C.ar         1 SAH301   0.0000
    20 C6         -12.3590    48.8070    20.0470 C.ar         1 SAH301   0.0000
    21 N6         -12.4680    49.1320    21.3460 N.pl3        1 SAH301   0.0000
    22 N1         -12.8560    49.6690    19.0980 N.ar         1 SAH301   0.0000
    23 C2         -12.7460    49.3720    17.7520 C.ar         1 SAH301   0.0000
    24 N3         -12.1520    48.1920    17.3640 N.ar         1 SAH301   0.0000
    25 C4         -11.6610    47.3350    18.2860 C.ar         1 SAH301   0.0000
    26 H1          -5.0741    45.7454    20.0336 H            1 SAH301   0.0000
    27 H2          -4.0254    44.5655    19.6155 H            1 SAH301   0.0000
    28 HA          -6.7454    44.1246    20.3589 H            1 SAH301   0.0000
    29 HB1         -5.8427    41.7841    20.4726 H            1 SAH301   0.0000
    30 HB2         -4.7159    42.3624    19.4418 H            1 SAH301   0.0000
    31 HG1         -6.4828    41.3243    18.2584 H            1 SAH301   0.0000
    32 HG2         -6.3879    42.9108    17.8834 H            1 SAH301   0.0000
    33 H8          -5.7706    43.1338    22.4832 H            1 SAH301   0.0000
    34 H5'1       -10.0703    41.7108    17.7000 H            1 SAH301   0.0000
    35 H5'2        -8.6378    41.6345    16.9198 H            1 SAH301   0.0000
    36 H4'         -9.7609    43.1458    15.7233 H            1 SAH301   0.0000
    37 H3'         -8.2679    44.7143    17.6157 H            1 SAH301   0.0000
    38 H13         -7.6994    44.6409    14.9194 H            1 SAH301   0.0000
    39 H2'         -9.0538    46.5921    16.5272 H            1 SAH301   0.0000
    40 H15         -9.7146    46.6131    14.4584 H            1 SAH301   0.0000
    41 H1'        -11.5078    45.6489    16.2304 H            1 SAH301   0.0000
    42 H17        -10.3313    44.7972    19.6599 H            1 SAH301   0.0000
    43 H18        -12.8969    49.9956    21.6111 H            1 SAH301   0.0000
    44 H19        -12.1203    48.5103    22.0478 H            1 SAH301   0.0000
    45 H20        -13.0953    50.0096    17.0654 H            1 SAH301   0.0000
    46 H21         -5.3274    44.8705    18.6782 H            1 SAH301   0.0000
@<TRIPOS>BOND
     1    1    2       1
     2    2    3       1
     3    2    6       1
     4    3    4       1
     5    4    5       1
     6    5    8       1
     7    6    7       2
     8    8    9       1
     9    9   10       1
    10    9   11       1
    11   10   15       1
    12   11   12       1
    13   11   13       1
    14   13   14       1
    15   13   15       1
    16   15   16       1
    17   16   17       1
    18   16   25       1
    19   17   18       2
    20   18   19       1
    21   19   20      ar
    22   19   25      ar
    23   20   21       1
    24   20   22      ar
    25   22   23      ar
    26   23   24      ar
    27   24   25      ar
    28    1   26       1
    29    1   27       1
    30    2   28       1
    31    3   29       1
    32    3   30       1
    33    4   31       1
    34    4   32       1
    35    6   33       1
    36    8   34       1
    37    8   35       1
    38    9   36       1
    39   11   37       1
    40   12   38       1
    41   13   39       1
    42   14   40       1
    43   15   41       1
    44   17   42       1
    45   21   43       1
    46   21   44       1
    47   23   45       1
    48    1   46       1
@<TRIPOS>SUBSTRUCTURE
     1 SAH301      1 GROUP             4 A     SAH     0 **** SAH A 301
