@<TRIPOS>MOLECULE
4n9i_PCG_4_ligand
   35    38     1     0     0
SMALL
NO_CHARGES


@<TRIPOS>ATOM
     1 PA          21.1370    26.7270    62.6780 P.3          1 PCG301   0.0000
     2 O1A         20.7850    26.7200    61.3060 O.2          1 PCG301   0.0000
     3 O2A         20.0580    26.4700    63.5890 O.3          1 PCG301   0.0000
     4 O5'         21.7230    28.1820    63.0000 O.3          1 PCG301   0.0000
     5 C5'         22.6390    28.3440    64.1030 C.3          1 PCG301   0.0000
     6 C4'         23.7540    27.3640    63.9120 C.3          1 PCG301   0.0000
     7 O4'         24.6710    27.4020    65.0080 O.3          1 PCG301   0.0000
     8 C3'         23.0930    26.0160    64.1180 C.3          1 PCG301   0.0000
     9 O3'         22.4150    25.7210    62.9260 O.3          1 PCG301   0.0000
    10 C2'         24.2610    25.1160    64.4370 C.3          1 PCG301   0.0000
    11 O2'         24.9000    24.6030    63.2590 O.3          1 PCG301   0.0000
    12 C1'         25.2770    26.0620    65.0370 C.3          1 PCG301   0.0000
    13 N9          25.6510    25.6740    66.3880 N.pl3        1 PCG301   0.0000
    14 C8          26.8510    25.3040    66.8220 C.2          1 PCG301   0.0000
    15 N7          26.7520    25.0440    68.1320 N.2          1 PCG301   0.0000
    16 C5          25.4830    25.2330    68.4930 C.2          1 PCG301   0.0000
    17 C6          24.8360    25.0920    69.6880 C.2          1 PCG301   0.0000
    18 O6          25.3750    24.7630    70.7550 O.2          1 PCG301   0.0000
    19 N1          23.5190    25.3520    69.7490 N.pl3        1 PCG301   0.0000
    20 C2          22.8660    25.7480    68.5830 C.2          1 PCG301   0.0000
    21 N2          21.5650    25.9980    68.6550 N.pl3        1 PCG301   0.0000
    22 N3          23.5140    25.8800    67.4100 N.2          1 PCG301   0.0000
    23 C4          24.8090    25.6170    67.4000 C.2          1 PCG301   0.0000
    24 H5'1        22.1688    28.1617    64.9665 H            1 PCG301   0.0000
    25 H5'2        23.0016    29.2759    64.1112 H            1 PCG301   0.0000
    26 H4'         24.2026    27.4489    63.0223 H            1 PCG301   0.0000
    27 H3'         22.4547    26.0506    64.8870 H            1 PCG301   0.0000
    28 H2'         24.0082    24.3867    65.0728 H            1 PCG301   0.0000
    29 H6          24.4711    23.7386    62.9967 H            1 PCG301   0.0000
    30 H1'         26.0956    26.0645    64.4627 H            1 PCG301   0.0000
    31 H8          27.6809    25.2324    66.2687 H            1 PCG301   0.0000
    32 H9          23.0192    25.2635    70.6106 H            1 PCG301   0.0000
    33 H10         21.0649    26.2842    67.8377 H            1 PCG301   0.0000
    34 H11         21.0845    25.9002    69.5265 H            1 PCG301   0.0000
    35 H2A         20.4013    26.4952    64.5279 H            1 PCG301   0.0000
@<TRIPOS>BOND
     1    1    2       2
     2    1    3       1
     3    1    4       1
     4    1    9       1
     5    4    5       1
     6    5    6       1
     7    6    7       1
     8    6    8       1
     9    7   12       1
    10    8    9       1
    11    8   10       1
    12   10   11       1
    13   10   12       1
    14   12   13       1
    15   13   14       1
    16   13   23       1
    17   14   15       2
    18   15   16       1
    19   16   17       1
    20   16   23       2
    21   17   18       2
    22   17   19       1
    23   19   20       1
    24   20   21       1
    25   20   22       2
    26   22   23       1
    27   21   34       1
    28    5   24       1
    29    5   25       1
    30    6   26       1
    31    8   27       1
    32   10   28       1
    33   11   29       1
    34   12   30       1
    35   14   31       1
    36   19   32       1
    37   21   33       1
    38    3   35       1
@<TRIPOS>SUBSTRUCTURE
     1 PCG301      1 GROUP             4 D     PCG     0 **** PCG D 301
