@<TRIPOS>MOLECULE
3ipu_O40_1_ligand
   57    59     1     0     0
SMALL
NO_CHARGES


@<TRIPOS>ATOM
     1 C1          23.8860   -14.6880    19.1500 C.ar         1 O40801   0.0000
     2 C2          23.4700   -16.0320    19.1380 C.ar         1 O40801   0.0000
     3 C3          24.3600   -17.0880    19.4400 C.ar         1 O40801   0.0000
     4 C4          25.6740   -16.7310    19.7580 C.ar         1 O40801   0.0000
     5 C5          26.0380   -15.4030    19.7630 C.ar         1 O40801   0.0000
     6 C6          25.1920   -14.3500    19.4710 C.ar         1 O40801   0.0000
     7 O7          26.7150   -17.5990    20.0950 O.2          1 O40801   0.0000
     8 N8          27.8470   -16.7440    20.3400 N.2          1 O40801   0.0000
     9 C9          27.4660   -15.5330    20.1340 C.2          1 O40801   0.0000
    10 C10         14.3690   -15.5880    17.6990 C.ar         1 O40801   0.0000
    11 O11         22.1560   -16.3500    18.8150 O.3          1 O40801   0.0000
    12 C12         23.9350   -18.5610    19.4280 C.3          1 O40801   0.0000
    13 C13         13.1170   -15.0330    17.4190 C.ar         1 O40801   0.0000
    14 C14         28.2910   -14.2950    20.3050 C.3          1 O40801   0.0000
    15 C15         21.2410   -15.3580    18.3200 C.3          1 O40801   0.0000
    16 C16         11.9490   -15.6160    17.9250 C.ar         1 O40801   0.0000
    17 C17         24.2480   -19.2300    18.0580 C.3          1 O40801   0.0000
    18 C18         12.0510   -16.7680    18.7100 C.ar         1 O40801   0.0000
    19 C19         13.2990   -17.3110    18.9960 C.ar         1 O40801   0.0000
    20 C20         23.4550   -18.6030    16.8840 C.3          1 O40801   0.0000
    21 N21         18.0380   -17.3630    19.1660 N.pl3        1 O40801   0.0000
    22 C22         18.0530   -18.8260    19.2410 C.3          1 O40801   0.0000
    23 C23         16.8560   -16.6980    18.9410 C.2          1 O40801   0.0000
    24 N24         15.7010   -17.3060    18.7770 N.2          1 O40801   0.0000
    25 C26         19.9160   -16.1040    18.0520 C.3          1 O40801   0.0000
    26 C29         19.3000   -16.6170    19.3780 C.3          1 O40801   0.0000
    27 O30         10.5570   -13.8300    16.9650 O.co2        1 O40801   0.0000
    28 C32         10.5940   -15.0140    17.6070 C.2          1 O40801   0.0000
    29 O33         16.8760   -15.4860    18.8830 O.3          1 O40801   0.0000
    30 O34          9.5680   -15.6210    17.9250 O.co2        1 O40801  -1.0000
    31 F38         29.5530   -14.6820    20.6920 F            1 O40801   0.0000
    32 F39         27.6560   -13.6020    21.2920 F            1 O40801   0.0000
    33 F40         28.3060   -13.4750    19.2090 F            1 O40801   0.0000
    34 C42         14.4840   -16.7380    18.4990 C.ar         1 O40801   0.0000
    35 H1          23.2311   -13.9669    18.9240 H            1 O40801   0.0000
    36 H2          25.5034   -13.3999    19.4901 H            1 O40801   0.0000
    37 H3          15.1929   -15.1617    17.3256 H            1 O40801   0.0000
    38 H4          22.9517   -18.6175    19.6008 H            1 O40801   0.0000
    39 H5          24.4286   -19.0481    20.1485 H            1 O40801   0.0000
    40 H6          13.0550   -14.2117    16.8519 H            1 O40801   0.0000
    41 H7          21.5899   -14.9534    17.4747 H            1 O40801   0.0000
    42 H8          21.1042   -14.6394    19.0018 H            1 O40801   0.0000
    43 H9          24.0160   -20.2009    18.1169 H            1 O40801   0.0000
    44 H10         25.2254   -19.1316    17.8711 H            1 O40801   0.0000
    45 H11         11.2243   -17.2029    19.0670 H            1 O40801   0.0000
    46 H12         13.3555   -18.1287    19.5689 H            1 O40801   0.0000
    47 H13         23.6948   -19.0699    16.0328 H            1 O40801   0.0000
    48 H14         22.4745   -18.7019    17.0536 H            1 O40801   0.0000
    49 H15         23.6839   -17.6325    16.8078 H            1 O40801   0.0000
    50 H16         18.9870   -19.1416    19.4084 H            1 O40801   0.0000
    51 H17         17.4604   -19.1276    19.9879 H            1 O40801   0.0000
    52 H18         17.7219   -19.2074    18.3779 H            1 O40801   0.0000
    53 H19         20.0932   -16.8821    17.4494 H            1 O40801   0.0000
    54 H20         19.2714   -15.4802    17.6100 H            1 O40801   0.0000
    55 H21         19.9590   -17.2221    19.8248 H            1 O40801   0.0000
    56 H22         19.1134   -15.8326    19.9695 H            1 O40801   0.0000
    57 H23         17.7390   -14.9941    18.9979 H            1 O40801   0.0000
@<TRIPOS>BOND
     1    1    2      ar
     2    1    6      ar
     3    2    3      ar
     4    2   11       1
     5    3    4      ar
     6    3   12       1
     7    4    5      ar
     8    4    7       1
     9    5    6      ar
    10    5    9       1
    11    7    8       1
    12    8    9       2
    13    9   14       1
    14   10   13      ar
    15   10   34      ar
    16   11   15       1
    17   12   17       1
    18   13   16      ar
    19   14   31       1
    20   14   32       1
    21   14   33       1
    22   15   25       1
    23   16   18      ar
    24   16   28       1
    25   17   20       1
    26   18   19      ar
    27   19   34      ar
    28   21   22       1
    29   21   23       1
    30   21   26       1
    31   23   24       2
    32   23   29       1
    33   24   34       1
    34   25   26       1
    35   27   28      ar
    36   28   30      ar
    37    1   35       1
    38    6   36       1
    39   10   37       1
    40   12   38       1
    41   12   39       1
    42   13   40       1
    43   15   41       1
    44   15   42       1
    45   17   43       1
    46   17   44       1
    47   18   45       1
    48   19   46       1
    49   20   47       1
    50   20   48       1
    51   20   49       1
    52   22   50       1
    53   22   51       1
    54   22   52       1
    55   26   56       1
    56   25   53       1
    57   25   54       1
    58   26   55       1
    59   29   57       1
@<TRIPOS>SUBSTRUCTURE
     1 O40801      1 GROUP             4 A     O40     0 **** O40 A 801
