@<TRIPOS>MOLECULE
2a8s_GTP_1_ligand
   44    46     1     0     0
SMALL
NO_CHARGES


@<TRIPOS>ATOM
     1 PG          16.7800    55.0410     1.3630 P.3          1 GTP250   0.0000
     2 O1G         16.8040    55.1210     2.8480 O.co2        1 GTP250   0.0000
     3 O2G         16.5790    56.5290     0.7170 O.co2        1 GTP250  -1.0000
     4 O3G         15.5590    54.1250     0.7900 O.co2        1 GTP250  -1.0000
     5 O3B         18.1200    54.3830     0.7050 O.3          1 GTP250   0.0000
     6 PB          18.8840    53.2860     1.5590 P.3          1 GTP250   0.0000
     7 O1B         18.5180    53.4870     2.9690 O.co2        1 GTP250   0.0000
     8 O2B         18.6810    51.9450     0.9650 O.co2        1 GTP250  -1.0000
     9 O3A         20.4440    53.7490     1.4490 O.3          1 GTP250   0.0000
    10 PA          21.6460    52.6600     1.5020 P.3          1 GTP250   0.0000
    11 O1A         21.1170    51.3710     2.0000 O.co2        1 GTP250   0.0000
    12 O2A         22.3440    52.7150     0.1970 O.co2        1 GTP250  -1.0000
    13 O5'         22.6600    53.2110     2.6480 O.3          1 GTP250   0.0000
    14 C5'         23.3380    54.4550     2.4650 C.3          1 GTP250   0.0000
    15 C4'         24.7720    54.4930     3.0510 C.3          1 GTP250   0.0000
    16 O4'         25.0810    53.3330     3.8570 O.3          1 GTP250   0.0000
    17 C3'         25.7860    54.5410     1.9000 C.3          1 GTP250   0.0000
    18 O3'         26.7280    55.5840     2.1700 O.3          1 GTP250   0.0000
    19 C2'         26.4880    53.1880     1.9360 C.3          1 GTP250   0.0000
    20 O2'         27.8880    53.3680     1.7360 O.3          1 GTP250   0.0000
    21 C1'         26.2960    52.7120     3.3640 C.3          1 GTP250   0.0000
    22 N9          25.9830    51.2700     3.4410 N.pl3        1 GTP250   0.0000
    23 C8          25.0900    50.6240     2.6840 C.2          1 GTP250   0.0000
    24 N7          25.0400    49.3410     3.0460 N.2          1 GTP250   0.0000
    25 C5          25.9030    49.1670     4.0470 C.2          1 GTP250   0.0000
    26 C6          26.2580    48.0500     4.8010 C.2          1 GTP250   0.0000
    27 O6          25.7350    46.9570     4.5730 O.2          1 GTP250   0.0000
    28 N1          27.2250    48.2040     5.8150 N.pl3        1 GTP250   0.0000
    29 C2          27.8020    49.4730     6.0360 C.2          1 GTP250   0.0000
    30 N2          28.7210    49.6330     6.9900 N.pl3        1 GTP250   0.0000
    31 N3          27.4270    50.5250     5.2830 N.2          1 GTP250   0.0000
    32 C4          26.5040    50.4000     4.3070 C.2          1 GTP250   0.0000
    33 H5'1        22.8000    55.1727     2.9072 H            1 GTP250   0.0000
    34 H5'2        23.3959    54.6385     1.4837 H            1 GTP250   0.0000
    35 H4'         24.8742    55.3156     3.6104 H            1 GTP250   0.0000
    36 H3'         25.3287    54.6866     1.0227 H            1 GTP250   0.0000
    37 H5          27.6478    55.1958     2.2273 H            1 GTP250   0.0000
    38 H2'         26.0968    52.5480     1.2746 H            1 GTP250   0.0000
    39 H7          28.1749    52.8684     0.9186 H            1 GTP250   0.0000
    40 H1'         27.0828    52.9455     3.9353 H            1 GTP250   0.0000
    41 H9          24.5429    51.0393     1.9572 H            1 GTP250   0.0000
    42 H10         29.1289    50.5327     7.1454 H            1 GTP250   0.0000
    43 H11         29.0018    48.8532     7.5496 H            1 GTP250   0.0000
    44 H12         27.4998    47.4209     6.3729 H            1 GTP250   0.0000
@<TRIPOS>BOND
     1    1    2      ar
     2    1    3      ar
     3    1    4      ar
     4    1    5       1
     5    5    6       1
     6    6    7      ar
     7    6    8      ar
     8    6    9       1
     9    9   10       1
    10   10   11      ar
    11   10   12      ar
    12   10   13       1
    13   13   14       1
    14   14   15       1
    15   15   16       1
    16   15   17       1
    17   16   21       1
    18   17   18       1
    19   17   19       1
    20   19   20       1
    21   19   21       1
    22   21   22       1
    23   22   23       1
    24   22   32       1
    25   23   24       2
    26   24   25       1
    27   25   26       1
    28   25   32       2
    29   26   27       2
    30   26   28       1
    31   28   29       1
    32   29   30       1
    33   29   31       2
    34   31   32       1
    35   28   44       1
    36   30   43       1
    37   30   42       1
    38   23   41       1
    39   14   33       1
    40   14   34       1
    41   15   35       1
    42   17   36       1
    43   18   37       1
    44   19   38       1
    45   20   39       1
    46   21   40       1
@<TRIPOS>SUBSTRUCTURE
     1 GTP250      1 GROUP             4 A     GTP     0 **** GTP A 250
