@<TRIPOS>MOLECULE
3six_GDP_1_ligand
   40    42     1     0     0
SMALL
NO_CHARGES


@<TRIPOS>ATOM
     1 PB          15.8230    47.4510    11.0600 P.3          1 GDP401   0.0000
     2 O1B         14.8410    47.6550    12.3660 O.co2        1 GDP401   0.0000
     3 O2B         15.7780    48.6700    10.2010 O.co2        1 GDP401  -1.0000
     4 O3B         15.2390    46.1150    10.3090 O.co2        1 GDP401  -1.0000
     5 O3A         17.3740    47.0720    11.6580 O.3          1 GDP401   0.0000
     6 PA          18.2480    45.6740    11.3360 P.3          1 GDP401   0.0000
     7 O1A         19.6770    46.0770    11.0760 O.co2        1 GDP401   0.0000
     8 O2A         17.9490    44.6070    12.3440 O.co2        1 GDP401  -1.0000
     9 O5'         17.6200    45.1740     9.8930 O.3          1 GDP401   0.0000
    10 C5'         18.5280    44.8050     8.8190 C.3          1 GDP401   0.0000
    11 C4'         18.7190    45.8610     7.6910 C.3          1 GDP401   0.0000
    12 O4'         19.4380    45.1510     6.5720 O.3          1 GDP401   0.0000
    13 C3'         17.3630    46.2310     7.1220 C.3          1 GDP401   0.0000
    14 O3'         17.5220    47.2650     6.1520 O.3          1 GDP401   0.0000
    15 C2'         17.0700    44.9280     6.3980 C.3          1 GDP401   0.0000
    16 O2'         15.9930    45.0990     5.4870 O.3          1 GDP401   0.0000
    17 C1'         18.4230    44.6270     5.6800 C.3          1 GDP401   0.0000
    18 N9          18.6480    43.1610     5.5760 N.pl3        1 GDP401   0.0000
    19 C8          18.1840    42.2570     6.4640 C.2          1 GDP401   0.0000
    20 N7          18.5530    41.0350     6.0950 N.2          1 GDP401   0.0000
    21 C5          19.2430    41.1620     4.9540 C.2          1 GDP401   0.0000
    22 C6          19.8540    40.2210     4.1310 C.2          1 GDP401   0.0000
    23 O6          19.7810    39.0210     4.4330 O.2          1 GDP401   0.0000
    24 N1          20.5330    40.6640     2.9610 N.pl3        1 GDP401   0.0000
    25 C2          20.5860    42.0150     2.6970 C.2          1 GDP401   0.0000
    26 N2          21.2260    42.4210     1.6080 N.pl3        1 GDP401   0.0000
    27 N3          19.9690    42.8880     3.5210 N.2          1 GDP401   0.0000
    28 C4          19.3230    42.5050     4.6260 C.2          1 GDP401   0.0000
    29 H5'1        18.1791    43.9678     8.3979 H            1 GDP401   0.0000
    30 H5'2        19.4243    44.6256     9.2246 H            1 GDP401   0.0000
    31 H4'         19.2229    46.6635     8.0104 H            1 GDP401   0.0000
    32 H3'         16.6874    46.4513     7.8255 H            1 GDP401   0.0000
    33 H5          18.1164    46.9425     5.4154 H            1 GDP401   0.0000
    34 H2'         16.8574    44.2053     7.0557 H            1 GDP401   0.0000
    35 H7          15.9837    46.0423     5.1552 H            1 GDP401   0.0000
    36 H1'         18.4647    45.0664     4.7827 H            1 GDP401   0.0000
    37 H9          17.6439    42.4740     7.2771 H            1 GDP401   0.0000
    38 H10         20.9635    40.0068     2.3423 H            1 GDP401   0.0000
    39 H11         21.2790    43.3963     1.3936 H            1 GDP401   0.0000
    40 H12         21.6554    41.7517     1.0016 H            1 GDP401   0.0000
@<TRIPOS>BOND
     1    1    2      ar
     2    1    3      ar
     3    1    4      ar
     4    1    5       1
     5    5    6       1
     6    6    7      ar
     7    6    8      ar
     8    6    9       1
     9    9   10       1
    10   10   11       1
    11   11   12       1
    12   11   13       1
    13   12   17       1
    14   13   14       1
    15   13   15       1
    16   15   16       1
    17   15   17       1
    18   17   18       1
    19   18   19       1
    20   18   28       1
    21   19   20       2
    22   20   21       1
    23   21   22       1
    24   21   28       2
    25   22   23       2
    26   22   24       1
    27   24   25       1
    28   25   26       1
    29   25   27       2
    30   27   28       1
    31   26   40       1
    32   26   39       1
    33   24   38       1
    34   10   29       1
    35   10   30       1
    36   11   31       1
    37   13   32       1
    38   14   33       1
    39   15   34       1
    40   16   35       1
    41   17   36       1
    42   19   37       1
@<TRIPOS>SUBSTRUCTURE
     1 GDP401      1 GROUP             4 A     GDP     0 **** GDP A 401
