@<TRIPOS>MOLECULE
1h6d_NDP_4_ligand
   73    77     1     0     0
SMALL
NO_CHARGES


@<TRIPOS>ATOM
     1 PA           8.3380   -26.5280    12.5440 P.3          1 NDP500   0.0000
     2 O1A          8.5460   -27.9430    12.1440 O.co2        1 NDP500   0.0000
     3 O2A          8.5140   -26.4200    14.0120 O.co2        1 NDP500  -1.0000
     4 O5B          6.8800   -26.1070    12.1610 O.3          1 NDP500   0.0000
     5 C5B          6.3020   -26.2890    10.8750 C.3          1 NDP500   0.0000
     6 C4B          4.8480   -25.8020    11.0310 C.3          1 NDP500   0.0000
     7 O4B          4.1480   -25.9100     9.7960 O.3          1 NDP500   0.0000
     8 C3B          4.1260   -26.6590    12.0780 C.3          1 NDP500   0.0000
     9 O3B          3.9180   -25.8850    13.2530 O.3          1 NDP500   0.0000
    10 C2B          2.8330   -27.0810    11.4150 C.3          1 NDP500   0.0000
    11 O2B          1.7520   -26.3730    12.0490 O.3          1 NDP500   0.0000
    12 C1B          2.9600   -26.7180     9.9310 C.3          1 NDP500   0.0000
    13 N9A          2.9480   -27.8840     9.0210 N.pl3        1 NDP500   0.0000
    14 C8A          2.0380   -28.1400     8.0280 C.2          1 NDP500   0.0000
    15 N7A          2.3370   -29.3010     7.3910 N.2          1 NDP500   0.0000
    16 C5A          3.4290   -29.7500     7.9950 C.ar         1 NDP500   0.0000
    17 C6A          4.1420   -30.9120     7.7170 C.ar         1 NDP500   0.0000
    18 N6A          3.7750   -31.7380     6.7550 N.pl3        1 NDP500   0.0000
    19 N1A          5.2720   -31.2020     8.4770 N.ar         1 NDP500   0.0000
    20 C2A          5.6590   -30.3640     9.4670 C.ar         1 NDP500   0.0000
    21 N3A          4.9660   -29.2370     9.7350 N.ar         1 NDP500   0.0000
    22 C4A          3.8350   -28.9000     9.0110 C.ar         1 NDP500   0.0000
    23 O3           9.4950   -25.6450    11.8450 O.3          1 NDP500   0.0000
    24 PN           9.9230   -24.1410    11.8040 P.3          1 NDP500   0.0000
    25 O1N         11.2820   -24.0720    12.3210 O.co2        1 NDP500   0.0000
    26 O2N          8.9710   -23.3090    12.6010 O.co2        1 NDP500  -1.0000
    27 O5D          9.9030   -23.8690    10.2110 O.3          1 NDP500   0.0000
    28 C5D          8.7820   -23.2330     9.5760 C.3          1 NDP500   0.0000
    29 C4D          9.2710   -22.2420     8.5190 C.3          1 NDP500   0.0000
    30 O4D          9.8730   -21.1130     9.1730 O.3          1 NDP500   0.0000
    31 C3D         10.3510   -22.8110     7.5640 C.3          1 NDP500   0.0000
    32 O3D         10.0880   -22.3870     6.1940 O.3          1 NDP500   0.0000
    33 C2D         11.6770   -22.2160     8.0800 C.3          1 NDP500   0.0000
    34 O2D         12.6460   -22.0850     7.0250 O.3          1 NDP500   0.0000
    35 C1D         11.2260   -20.8970     8.6510 C.3          1 NDP500   0.0000
    36 N1N         12.1230   -20.4190     9.7070 N.ar         1 NDP500   1.0000
    37 C2N         12.6350   -19.0900     9.5700 C.ar         1 NDP500   0.0000
    38 C3N         13.4970   -18.5990    10.5770 C.ar         1 NDP500   0.0000
    39 C7N         14.0870   -17.1700    10.5020 C.2          1 NDP500   0.0000
    40 O7N         14.8290   -16.7860    11.3980 O.2          1 NDP500   0.0000
    41 N7N         13.7370   -16.4490     9.4480 N.am         1 NDP500   0.0000
    42 C4N         13.8370   -19.4330    11.7010 C.ar         1 NDP500   0.0000
    43 C5N         13.3240   -20.7700    11.8430 C.ar         1 NDP500   0.0000
    44 C6N         12.4630   -21.2520    10.8340 C.ar         1 NDP500   0.0000
    45 P2B          0.5710   -27.0240    13.0270 P.3          1 NDP500   0.0000
    46 O1X         -0.5030   -27.7440    12.1280 O.co2        1 NDP500   0.0000
    47 O2X          0.1080   -26.1950    14.0110 O.co2        1 NDP500  -1.0000
    48 O3X          1.2860   -28.1400    13.7640 O.co2        1 NDP500  -1.0000
    49 H5B1         6.3251   -27.2531    10.6106 H            1 NDP500   0.0000
    50 H5B2         6.7855   -25.7439    10.1901 H            1 NDP500   0.0000
    51 H4B          4.8489   -24.8473    11.3284 H            1 NDP500   0.0000
    52 H3B          4.6759   -27.4656    12.2950 H            1 NDP500   0.0000
    53 H5           2.9379   -25.8219    13.4414 H            1 NDP500   0.0000
    54 H2B          2.7023   -28.0672    11.5163 H            1 NDP500   0.0000
    55 H1B          2.1768   -26.1433     9.6938 H            1 NDP500   0.0000
    56 H8A          1.2607   -27.5522     7.8037 H            1 NDP500   0.0000
    57 H6A1         4.3065   -32.5662     6.5773 H            1 NDP500   0.0000
    58 H6A2         2.9655   -31.5356     6.2039 H            1 NDP500   0.0000
    59 H2A          6.4708   -30.5832    10.0082 H            1 NDP500   0.0000
    60 H5D1         8.2450   -22.7449    10.2640 H            1 NDP500   0.0000
    61 H5D2         8.2110   -23.9280     9.1390 H            1 NDP500   0.0000
    62 H4D          8.4899   -21.9285     7.9790 H            1 NDP500   0.0000
    63 H3D         10.3732   -23.8092     7.6203 H            1 NDP500   0.0000
    64 H16         10.4254   -23.0822     5.5593 H            1 NDP500   0.0000
    65 H2D         12.0459   -22.7924     8.8092 H            1 NDP500   0.0000
    66 H18         12.2852   -21.4813     6.3141 H            1 NDP500   0.0000
    67 H1D         11.1903   -20.2174     7.9183 H            1 NDP500   0.0000
    68 H2N         12.3897   -18.5238     8.7831 H            1 NDP500   0.0000
    69 H7N1        14.0849   -15.5175     9.3415 H            1 NDP500   0.0000
    70 H7N2        13.1248   -16.8360     8.7585 H            1 NDP500   0.0000
    71 H4N         14.4487   -19.0716    12.4047 H            1 NDP500   0.0000
    72 H5N         13.5690   -21.3376    12.6290 H            1 NDP500   0.0000
    73 H6N         12.0867   -22.1761    10.9009 H            1 NDP500   0.0000
@<TRIPOS>BOND
     1    1    2      ar
     2    1    3      ar
     3    1    4       1
     4    1   23       1
     5    4    5       1
     6    5    6       1
     7    6    7       1
     8    6    8       1
     9    7   12       1
    10    8    9       1
    11    8   10       1
    12   10   11       1
    13   10   12       1
    14   11   45       1
    15   12   13       1
    16   13   14       1
    17   13   22       1
    18   14   15       2
    19   15   16       1
    20   16   17      ar
    21   16   22      ar
    22   17   18       1
    23   17   19      ar
    24   19   20      ar
    25   20   21      ar
    26   21   22      ar
    27   23   24       1
    28   24   25      ar
    29   24   26      ar
    30   24   27       1
    31   27   28       1
    32   28   29       1
    33   29   30       1
    34   29   31       1
    35   30   35       1
    36   31   32       1
    37   31   33       1
    38   33   34       1
    39   33   35       1
    40   35   36       1
    41   36   37      ar
    42   36   44      ar
    43   37   38      ar
    44   38   39       1
    45   38   42      ar
    46   39   40       2
    47   39   41      am
    48   42   43      ar
    49   43   44      ar
    50   45   46      ar
    51   45   47      ar
    52   45   48      ar
    53   43   72       1
    54    5   49       1
    55    5   50       1
    56    6   51       1
    57    8   52       1
    58    9   53       1
    59   10   54       1
    60   12   55       1
    61   14   56       1
    62   18   57       1
    63   18   58       1
    64   20   59       1
    65   44   73       1
    66   28   60       1
    67   28   61       1
    68   29   62       1
    69   31   63       1
    70   32   64       1
    71   33   65       1
    72   34   66       1
    73   35   67       1
    74   37   68       1
    75   41   69       1
    76   41   70       1
    77   42   71       1
@<TRIPOS>SUBSTRUCTURE
     1 NDP500      1 GROUP             4 D     NDP     0 **** NDP D 500
