@<TRIPOS>MOLECULE
5bp7_SAH_3_ligand
   46    48     1     0     0
SMALL
NO_CHARGES


@<TRIPOS>ATOM
     1 N           34.4020    19.6270    30.5120 N.4          1 SAH301   1.0000
     2 CA          33.3410    20.2190    31.3870 C.3          1 SAH301   0.0000
     3 CB          33.8980    20.6160    32.7560 C.3          1 SAH301   0.0000
     4 CG          35.1050    21.5610    32.8280 C.3          1 SAH301   0.0000
     5 SD          35.3720    22.1710    34.4790 S.3          1 SAH301   0.0000
     6 C           32.6620    21.4020    30.7640 C.2          1 SAH301   0.0000
     7 O           33.1060    21.9310    29.7390 O.co2        1 SAH301   0.0000
     8 OXT         31.6450    21.8710    31.2950 O.co2        1 SAH301  -1.0000
     9 C5'         36.4360    20.9180    35.2500 C.3          1 SAH301   0.0000
    10 C4'         35.6740    19.6750    35.6960 C.3          1 SAH301   0.0000
    11 O4'         36.6020    18.7010    36.1470 O.3          1 SAH301   0.0000
    12 C3'         34.6700    19.8580    36.8400 C.3          1 SAH301   0.0000
    13 O3'         33.3780    19.4240    36.3790 O.3          1 SAH301   0.0000
    14 C2'         35.1780    18.9910    37.9910 C.3          1 SAH301   0.0000
    15 O2'         34.1600    18.3040    38.7210 O.3          1 SAH301   0.0000
    16 C1'         35.9940    18.0010    37.2180 C.3          1 SAH301   0.0000
    17 N9          37.1330    17.3580    37.8690 N.pl3        1 SAH301   0.0000
    18 C8          38.1200    17.9320    38.6170 C.2          1 SAH301   0.0000
    19 N7          39.0270    17.0570    38.9830 N.2          1 SAH301   0.0000
    20 C5          38.6040    15.8540    38.4290 C.ar         1 SAH301   0.0000
    21 C6          39.1170    14.5440    38.4540 C.ar         1 SAH301   0.0000
    22 N6          40.2490    14.2410    39.1150 N.pl3        1 SAH301   0.0000
    23 N1          38.4520    13.5520    37.7970 N.ar         1 SAH301   0.0000
    24 C2          37.3180    13.8890    37.1570 C.ar         1 SAH301   0.0000
    25 N3          36.7360    15.0990    37.0670 N.ar         1 SAH301   0.0000
    26 C4          37.4410    16.0480    37.7300 C.ar         1 SAH301   0.0000
    27 H1          34.0053    19.3795    29.6280 H            1 SAH301   0.0000
    28 H2          35.1321    20.2963    30.3741 H            1 SAH301   0.0000
    29 HA          32.6458    19.5159    31.5363 H            1 SAH301   0.0000
    30 HB1         34.1608    19.7705    33.2208 H            1 SAH301   0.0000
    31 HB2         33.1530    21.0549    33.2584 H            1 SAH301   0.0000
    32 HG1         34.9447    22.3373    32.2184 H            1 SAH301   0.0000
    33 HG2         35.9213    21.0662    32.5301 H            1 SAH301   0.0000
    34 H5'1        36.8772    21.3244    36.0501 H            1 SAH301   0.0000
    35 H5'2        37.1336    20.6428    34.5885 H            1 SAH301   0.0000
    36 H4'         35.1867    19.3037    34.9056 H            1 SAH301   0.0000
    37 H3'         34.6339    20.8176    37.1190 H            1 SAH301   0.0000
    38 H12         33.4249    18.4609    36.1140 H            1 SAH301   0.0000
    39 H2'         35.7577    19.5240    38.6073 H            1 SAH301   0.0000
    40 H14         33.6590    17.6974    38.1038 H            1 SAH301   0.0000
    41 H1'         35.3887    17.2967    36.8469 H            1 SAH301   0.0000
    42 H16         38.1485    18.9023    38.8572 H            1 SAH301   0.0000
    43 H17         40.5911    13.3013    39.1162 H            1 SAH301   0.0000
    44 H18         40.7483    14.9555    39.6051 H            1 SAH301   0.0000
    45 H19         36.8459    13.1433    36.6868 H            1 SAH301   0.0000
    46 H20         34.7772    18.8098    30.9495 H            1 SAH301   0.0000
@<TRIPOS>BOND
     1    1    2       1
     2    2    3       1
     3    2    6       1
     4    3    4       1
     5    4    5       1
     6    5    9       1
     7    6    7      ar
     8    6    8      ar
     9    9   10       1
    10   10   11       1
    11   10   12       1
    12   11   16       1
    13   12   13       1
    14   12   14       1
    15   14   15       1
    16   14   16       1
    17   16   17       1
    18   17   18       1
    19   17   26       1
    20   18   19       2
    21   19   20       1
    22   20   21      ar
    23   20   26      ar
    24   21   22       1
    25   21   23      ar
    26   23   24      ar
    27   24   25      ar
    28   25   26      ar
    29    1   27       1
    30    1   28       1
    31    2   29       1
    32    3   30       1
    33    3   31       1
    34    4   32       1
    35    4   33       1
    36    1   46       1
    37    9   34       1
    38    9   35       1
    39   10   36       1
    40   12   37       1
    41   13   38       1
    42   14   39       1
    43   15   40       1
    44   16   41       1
    45   18   42       1
    46   22   43       1
    47   22   44       1
    48   24   45       1
@<TRIPOS>SUBSTRUCTURE
     1 SAH301      1 GROUP             4 C     SAH     0 **** SAH C 301
