@<TRIPOS>MOLECULE
4wkb_TDI_1_ligand
   40    42     1     0     0
SMALL
NO_CHARGES


@<TRIPOS>ATOM
     1 C2          14.7240    -6.7530    19.1230 C.ar         1 TDI301   0.0000
     2 C4          12.9990    -7.6870    20.3370 C.ar         1 TDI301   0.0000
     3 C5          13.7960    -8.8820    20.5720 C.ar         1 TDI301   0.0000
     4 C6          15.1360    -8.8840    20.0250 C.ar         1 TDI301   0.0000
     5 CS5          8.7900    -9.6320    14.9250 C.3          1 TDI301   0.0000
     6 S           10.0120    -8.4120    15.2510 S.3          1 TDI301   0.0000
     7 C5'         10.1510    -8.4870    17.0080 C.3          1 TDI301   0.0000
     8 C4'          9.0800    -7.6910    17.7560 C.3          1 TDI301   0.0000
     9 C1'          9.1320    -8.0240    19.2540 C.3          1 TDI301   0.0000
    10 N1'          9.6520    -6.7900    19.9080 N.4          1 TDI301   1.0000
    11 C10         10.5180    -7.0180    21.0860 C.3          1 TDI301   0.0000
    12 C9          11.7070    -7.9270    20.9560 C.2          1 TDI301   0.0000
    13 C8          11.8230    -9.1690    21.5470 C.2          1 TDI301   0.0000
    14 N7          13.0450    -9.7110    21.3090 N.pl3        1 TDI301   0.0000
    15 N6          15.9460    -9.9510    20.2070 N.pl3        1 TDI301   0.0000
    16 N1          15.5430    -7.8240    19.3210 N.ar         1 TDI301   0.0000
    17 N3          13.4710    -6.6490    19.6010 N.ar         1 TDI301   0.0000
    18 C2'         10.2960    -5.9770    18.8370 C.3          1 TDI301   0.0000
    19 C3'          9.3270    -6.1950    17.6890 C.3          1 TDI301   0.0000
    20 O3'          8.0700    -5.5400    17.9470 O.3          1 TDI301   0.0000
    21 H1          15.0800    -5.9898    18.5838 H            1 TDI301   0.0000
    22 HS51         8.6231    -9.6818    13.9403 H            1 TDI301   0.0000
    23 HS52         9.1098   -10.5204    15.2542 H            1 TDI301   0.0000
    24 HS53         7.9417    -9.3880    15.3950 H            1 TDI301   0.0000
    25 H5'1        11.0474    -8.1275    17.2674 H            1 TDI301   0.0000
    26 H5'2        10.0824    -9.4447    17.2875 H            1 TDI301   0.0000
    27 H4'          8.1749    -7.9055    17.3887 H            1 TDI301   0.0000
    28 H1'1         9.7461    -8.7953    19.4211 H            1 TDI301   0.0000
    29 H1'2         8.2188    -8.2447    19.5965 H            1 TDI301   0.0000
    30 H10          9.9375    -7.3974    21.8065 H            1 TDI301   0.0000
    31 H11         10.8633    -6.1242    21.3722 H            1 TDI301   0.0000
    32 H12         11.1020    -9.6114    22.0803 H            1 TDI301   0.0000
    33 H13         13.3435   -10.6066    21.6388 H            1 TDI301   0.0000
    34 H14         16.8709    -9.9472    19.8269 H            1 TDI301   0.0000
    35 H15         15.6202   -10.7441    20.7217 H            1 TDI301   0.0000
    36 H2'1        11.2100    -6.3176    18.6163 H            1 TDI301   0.0000
    37 H2'2        10.3526    -5.0117    19.0920 H            1 TDI301   0.0000
    38 H3'          9.7190    -5.9196    16.8112 H            1 TDI301   0.0000
    39 H19          8.1969    -4.5488    17.9103 H            1 TDI301   0.0000
    40 H1'          8.8575    -6.2733    20.2270 H            1 TDI301   0.0000
@<TRIPOS>BOND
     1    1   16      ar
     2    1   17      ar
     3    2    3      ar
     4    2   12       1
     5    2   17      ar
     6    3    4      ar
     7    3   14       1
     8    4   15       1
     9    4   16      ar
    10    5    6       1
    11    6    7       1
    12    7    8       1
    13    8    9       1
    14    8   19       1
    15    9   10       1
    16   10   11       1
    17   10   18       1
    18   11   12       1
    19   12   13       2
    20   13   14       1
    21   18   19       1
    22   19   20       1
    23    1   21       1
    24    5   22       1
    25    5   23       1
    26    5   24       1
    27    7   25       1
    28    7   26       1
    29    8   27       1
    30    9   28       1
    31    9   29       1
    32   11   30       1
    33   11   31       1
    34   13   32       1
    35   14   33       1
    36   15   34       1
    37   15   35       1
    38   18   36       1
    39   18   37       1
    40   19   38       1
    41   20   39       1
    42   10   40       1
@<TRIPOS>SUBSTRUCTURE
     1 TDI301      1 GROUP             4 A     TDI     0 **** TDI A 301
