@<TRIPOS>MOLECULE
2zxu_DST_2_ligand
   23    22     1     0     0
SMALL
NO_CHARGES


@<TRIPOS>ATOM
     1 O4          17.0610    58.9230    44.1400 O.co2        1 DST317   0.0000
     2 P1          16.6560    58.8390    42.6990 P.3          1 DST317   0.0000
     3 O6          17.6080    58.0420    41.8740 O.co2        1 DST317  -1.0000
     4 O5          16.4040    60.2060    42.1030 O.co2        1 DST317  -1.0000
     5 O2          15.2530    57.9930    42.6570 O.3          1 DST317   0.0000
     6 P3          13.8150    58.4500    41.9890 P.3          1 DST317   0.0000
     7 O8          13.5830    57.6270    40.7310 O.co2        1 DST317   0.0000
     8 O7          13.8430    59.9450    41.8000 O.co2        1 DST317  -1.0000
     9 S9          12.3720    58.0100    43.3750 S.3          1 DST317   0.0000
    10 C10         10.6670    58.3380    43.0700 C.3          1 DST317   0.0000
    11 C11          9.9010    58.1580    44.3770 C.2          1 DST317   0.0000
    12 C12          9.3390    56.9800    44.7580 C.2          1 DST317   0.0000
    13 C13          8.6140    56.9100    46.0630 C.3          1 DST317   0.0000
    14 C14          9.4260    55.7390    43.9020 C.3          1 DST317   0.0000
    15 H1          10.3179    57.7003    42.3833 H            1 DST317   0.0000
    16 H2          10.5571    59.2757    42.7405 H            1 DST317   0.0000
    17 H3           9.8075    58.9467    44.9846 H            1 DST317   0.0000
    18 H4           8.2606    55.9844    46.1988 H            1 DST317   0.0000
    19 H5           9.2426    57.1392    46.8062 H            1 DST317   0.0000
    20 H6           7.8537    57.5595    46.0572 H            1 DST317   0.0000
    21 H7           8.9520    54.9857    44.3579 H            1 DST317   0.0000
    22 H8           8.9975    55.9147    43.0157 H            1 DST317   0.0000
    23 H9          10.3861    55.4948    43.7656 H            1 DST317   0.0000
@<TRIPOS>BOND
     1    1    2      ar
     2    2    3      ar
     3    2    4      ar
     4    2    5       1
     5    5    6       1
     6    6    7      ar
     7    6    8      ar
     8    6    9       1
     9    9   10       1
    10   10   11       1
    11   11   12       2
    12   12   13       1
    13   12   14       1
    14   14   23       1
    15   14   22       1
    16   14   21       1
    17   10   15       1
    18   10   16       1
    19   11   17       1
    20   13   18       1
    21   13   19       1
    22   13   20       1
@<TRIPOS>SUBSTRUCTURE
     1 DST317      1 GROUP             4 B     DST     0 **** DST B 317
