@<TRIPOS>MOLECULE
2ge3_ACO_1_ligand
   85    87     1     0     0
SMALL
NO_CHARGES


@<TRIPOS>ATOM
     1 N1A         49.0480    32.9370    17.0700 N.ar         1 ACO1301   0.0000
     2 C2A         49.8010    33.9260    16.5880 C.ar         1 ACO1301   0.0000
     3 N3A         49.7030    34.3010    15.3000 N.ar         1 ACO1301   0.0000
     4 C4A         48.8600    33.6610    14.4510 C.ar         1 ACO1301   0.0000
     5 C5A         48.0080    32.6040    14.9110 C.ar         1 ACO1301   0.0000
     6 C6A         48.1440    32.2400    16.3170 C.ar         1 ACO1301   0.0000
     7 N6A         47.3010    31.2240    16.7740 N.pl3        1 ACO1301   0.0000
     8 N7A         47.2960    32.1040    13.8230 N.2          1 ACO1301   0.0000
     9 C8A         47.6090    32.8270    12.7470 C.2          1 ACO1301   0.0000
    10 N9A         48.5620    33.7210    13.1250 N.pl3        1 ACO1301   0.0000
    11 C1B         49.1280    34.7100    12.2440 C.3          1 ACO1301   0.0000
    12 C2B         49.4440    34.2520    10.8300 C.3          1 ACO1301   0.0000
    13 O2B         50.8220    33.8200    10.8620 O.3          1 ACO1301   0.0000
    14 C3B         49.1930    35.6040    10.1470 C.3          1 ACO1301   0.0000
    15 O3B         50.2670    36.4940    10.4890 O.3          1 ACO1301   0.0000
    16 P3B         51.6740    36.6810     9.6640 P.3          1 ACO1301   0.0000
    17 O7A         52.5560    35.4400     9.7390 O.co2        1 ACO1301   0.0000
    18 O8A         52.2220    37.8060    10.5450 O.co2        1 ACO1301  -1.0000
    19 O9A         51.2580    36.8210     8.2370 O.co2        1 ACO1301  -1.0000
    20 C4B         47.9880    36.2270    10.8540 C.3          1 ACO1301   0.0000
    21 O4B         48.0680    35.7070    12.1750 O.3          1 ACO1301   0.0000
    22 C5B         46.6470    35.7550    10.2250 C.3          1 ACO1301   0.0000
    23 O5B         46.4600    36.4610     9.0080 O.3          1 ACO1301   0.0000
    24 P1A         45.3440    36.1690     7.9780 P.3          1 ACO1301   0.0000
    25 O1A         45.2820    37.4270     7.1970 O.co2        1 ACO1301   0.0000
    26 O2A         45.8300    34.8290     7.4690 O.co2        1 ACO1301  -1.0000
    27 O3A         44.0650    36.0300     8.9680 O.3          1 ACO1301   0.0000
    28 P2A         42.6740    35.3490     8.7490 P.3          1 ACO1301   0.0000
    29 O4A         42.2160    35.1310     7.3410 O.co2        1 ACO1301   0.0000
    30 O5A         42.7420    34.1320     9.6310 O.co2        1 ACO1301  -1.0000
    31 O6A         41.6780    36.4810     9.4100 O.3          1 ACO1301   0.0000
    32 CBP         40.5360    36.5800    11.5700 C.3          1 ACO1301   0.0000
    33 CCP         41.8510    36.8080    10.8050 C.3          1 ACO1301   0.0000
    34 CDP         40.8520    36.7860    13.0890 C.3          1 ACO1301   0.0000
    35 CEP         39.4410    37.5360    11.0980 C.3          1 ACO1301   0.0000
    36 CAP         39.9030    35.1550    11.3010 C.3          1 ACO1301   0.0000
    37 OAP         40.8820    34.2270    11.6980 O.3          1 ACO1301   0.0000
    38 C9P         38.6320    34.7640    12.0020 C.2          1 ACO1301   0.0000
    39 O9P         37.5460    35.0070    11.4770 O.2          1 ACO1301   0.0000
    40 N8P         38.7070    34.1290    13.1890 N.am         1 ACO1301   0.0000
    41 C7P         37.4510    33.8530    13.9250 C.3          1 ACO1301   0.0000
    42 C6P         36.6370    35.0880    14.2500 C.3          1 ACO1301   0.0000
    43 C5P         37.3550    36.2810    14.8330 C.2          1 ACO1301   0.0000
    44 O5P         38.2820    36.1790    15.6310 O.2          1 ACO1301   0.0000
    45 N4P         36.8720    37.4790    14.4770 N.am         1 ACO1301   0.0000
    46 C3P         37.6470    38.6850    14.6880 C.3          1 ACO1301   0.0000
    47 C2P         37.7480    38.9570    16.1690 C.3          1 ACO1301   0.0000
    48 S1P         36.1560    39.4120    16.8120 S.3          1 ACO1301   0.0000
    49 C           37.1520    40.3420    17.7790 C.2          1 ACO1301   0.0000
    50 O           38.2380    40.6250    17.3510 O.2          1 ACO1301   0.0000
    51 CH3         36.5390    40.8270    19.0690 C.3          1 ACO1301   0.0000
    52 H2A         50.4464    34.3946    17.1912 H            1 ACO1301   0.0000
    53 H6A1        46.6719    30.7735    16.1405 H            1 ACO1301   0.0000
    54 H6A2        47.3267    30.9472    17.7346 H            1 ACO1301   0.0000
    55 H8A         47.2162    32.7300    11.8325 H            1 ACO1301   0.0000
    56 H1B         49.9438    35.1099    12.6618 H            1 ACO1301   0.0000
    57 H2B         48.8233    33.5368    10.5088 H            1 ACO1301   0.0000
    58 H7          51.4189    34.5935    10.6489 H            1 ACO1301   0.0000
    59 H3B         49.0606    35.5195     9.1594 H            1 ACO1301   0.0000
    60 H4B         48.0508    37.2250    10.8572 H            1 ACO1301   0.0000
    61 H5B1        45.8916    35.9508    10.8503 H            1 ACO1301   0.0000
    62 H5B2        46.6843    34.7721    10.0447 H            1 ACO1301   0.0000
    63 HCP1        42.1199    37.7675    10.8887 H            1 ACO1301   0.0000
    64 HCP2        42.5651    36.2265    11.1947 H            1 ACO1301   0.0000
    65 HDP1        40.0192    36.6462    13.6247 H            1 ACO1301   0.0000
    66 HDP2        41.5479    36.1281    13.3769 H            1 ACO1301   0.0000
    67 HDP3        41.1907    37.7153    13.2360 H            1 ACO1301   0.0000
    68 HEP1        38.6019    37.3623    11.6135 H            1 ACO1301   0.0000
    69 HEP2        39.7351    38.4799    11.2482 H            1 ACO1301   0.0000
    70 HEP3        39.2695    37.3913    10.1235 H            1 ACO1301   0.0000
    71 HAP         39.7600    35.0570    10.3161 H            1 ACO1301   0.0000
    72 H21         41.4727    34.0123    10.9202 H            1 ACO1301   0.0000
    73 H8P         39.5910    33.8504    13.5645 H            1 ACO1301   0.0000
    74 H7P1        37.6846    33.3966    14.7836 H            1 ACO1301   0.0000
    75 H7P2        36.8876    33.2442    13.3664 H            1 ACO1301   0.0000
    76 H6P1        35.9333    34.8154    14.9062 H            1 ACO1301   0.0000
    77 H6P2        36.2025    35.3889    13.4011 H            1 ACO1301   0.0000
    78 H4P         35.9651    37.5416    14.0604 H            1 ACO1301   0.0000
    79 H3P1        37.1967    39.4553    14.2364 H            1 ACO1301   0.0000
    80 H3P2        38.5636    38.5646    14.3068 H            1 ACO1301   0.0000
    81 H2P1        38.3943    39.7039    16.3253 H            1 ACO1301   0.0000
    82 H2P2        38.0709    38.1337    16.6358 H            1 ACO1301   0.0000
    83 HH31        37.2099    41.3708    19.5731 H            1 ACO1301   0.0000
    84 HH32        35.7379    41.3902    18.8663 H            1 ACO1301   0.0000
    85 HH33        36.2628    40.0415    19.6228 H            1 ACO1301   0.0000
@<TRIPOS>BOND
     1    1    2      ar
     2    1    6      ar
     3    2    3      ar
     4    3    4      ar
     5    4    5      ar
     6    4   10       1
     7    5    6      ar
     8    5    8       1
     9    6    7       1
    10    8    9       2
    11    9   10       1
    12   10   11       1
    13   11   12       1
    14   11   21       1
    15   12   13       1
    16   12   14       1
    17   14   15       1
    18   14   20       1
    19   15   16       1
    20   16   17      ar
    21   16   18      ar
    22   16   19      ar
    23   20   21       1
    24   20   22       1
    25   22   23       1
    26   23   24       1
    27   24   25      ar
    28   24   26      ar
    29   24   27       1
    30   27   28       1
    31   28   29      ar
    32   28   30      ar
    33   28   31       1
    34   31   33       1
    35   32   33       1
    36   32   34       1
    37   32   35       1
    38   32   36       1
    39   36   37       1
    40   36   38       1
    41   38   39       2
    42   38   40      am
    43   40   41       1
    44   41   42       1
    45   42   43       1
    46   43   44       2
    47   43   45      am
    48   45   46       1
    49   46   47       1
    50   47   48       1
    51   48   49       1
    52   49   50       2
    53   49   51       1
    54    2   52       1
    55    7   53       1
    56    7   54       1
    57    9   55       1
    58   11   56       1
    59   12   57       1
    60   13   58       1
    61   14   59       1
    62   51   85       1
    63   51   84       1
    64   20   60       1
    65   22   61       1
    66   22   62       1
    67   51   83       1
    68   47   82       1
    69   33   63       1
    70   33   64       1
    71   34   65       1
    72   34   66       1
    73   34   67       1
    74   35   68       1
    75   35   69       1
    76   35   70       1
    77   36   71       1
    78   37   72       1
    79   40   73       1
    80   41   74       1
    81   41   75       1
    82   42   76       1
    83   42   77       1
    84   45   78       1
    85   46   79       1
    86   46   80       1
    87   47   81       1
@<TRIPOS>SUBSTRUCTURE
     1 ACO1301     1 GROUP             4 A     ACO     0 **** ACO A1301
