@<TRIPOS>MOLECULE
4q36_CO8_1_ligand
  103   105     1     0     0
SMALL
NO_CHARGES


@<TRIPOS>ATOM
     1 N1A        -40.4670     2.2290   -10.8600 N.ar         1 CO8405   0.0000
     2 C2A        -39.7670     2.9750   -11.7330 C.ar         1 CO8405   0.0000
     3 N3A        -40.1540     4.1970   -12.1480 N.ar         1 CO8405   0.0000
     4 C4A        -41.3000     4.7630   -11.6970 C.ar         1 CO8405   0.0000
     5 C5A        -42.1190     4.0060   -10.7490 C.ar         1 CO8405   0.0000
     6 C6A        -41.6340     2.6660   -10.3410 C.ar         1 CO8405   0.0000
     7 N6A        -42.3250     1.9100    -9.4640 N.pl3        1 CO8405   0.0000
     8 N7A        -43.1760     4.7820   -10.4700 N.2          1 CO8405   0.0000
     9 C8A        -43.0680     5.9270   -11.1760 C.2          1 CO8405   0.0000
    10 N9A        -41.9440     5.9140   -11.9140 N.pl3        1 CO8405   0.0000
    11 C1B        -41.4690     7.0180   -12.7900 C.3          1 CO8405   0.0000
    12 C2B        -42.4390     7.3420   -13.9060 C.3          1 CO8405   0.0000
    13 O2B        -42.1700     6.5330   -15.0440 O.3          1 CO8405   0.0000
    14 C3B        -42.1640     8.8170   -14.1330 C.3          1 CO8405   0.0000
    15 O3B        -40.9380     8.8960   -14.8540 O.3          1 CO8405   0.0000
    16 P3B        -40.3960    10.1730   -15.6820 P.3          1 CO8405   0.0000
    17 O7A        -40.7030    11.4190   -14.8860 O.co2        1 CO8405   0.0000
    18 O8A        -38.9220     9.8240   -15.6990 O.co2        1 CO8405  -1.0000
    19 O9A        -41.1790    10.0970   -16.9750 O.co2        1 CO8405  -1.0000
    20 C4B        -41.8730     9.3500   -12.7340 C.3          1 CO8405   0.0000
    21 O4B        -41.3100     8.2410   -12.0240 O.3          1 CO8405   0.0000
    22 C5B        -43.1100     9.8960   -12.0260 C.3          1 CO8405   0.0000
    23 O5B        -44.1530     8.9270   -12.1300 O.3          1 CO8405   0.0000
    24 P1A        -45.6570     9.1290   -11.6040 P.3          1 CO8405   0.0000
    25 O1A        -45.6210     9.8680   -10.2780 O.co2        1 CO8405   0.0000
    26 O2A        -46.5310     9.6290   -12.7210 O.co2        1 CO8405  -1.0000
    27 O3A        -46.0920     7.5840   -11.3180 O.3          1 CO8405   0.0000
    28 P2A        -46.8180     6.5770   -12.3760 P.3          1 CO8405   0.0000
    29 O4A        -48.2780     6.8780   -12.5090 O.co2        1 CO8405   0.0000
    30 O5A        -45.9920     6.5870   -13.6420 O.co2        1 CO8405  -1.0000
    31 O6A        -46.6050     5.1750   -11.6210 O.3          1 CO8405   0.0000
    32 CBP        -47.2850     3.3860   -10.1480 C.3          1 CO8405   0.0000
    33 CCP        -47.1880     4.8970   -10.3420 C.3          1 CO8405   0.0000
    34 CDP        -48.0530     2.7510   -11.2920 C.3          1 CO8405   0.0000
    35 CEP        -48.0690     3.1550    -8.8780 C.3          1 CO8405   0.0000
    36 CAP        -45.8680     2.7710   -10.0260 C.3          1 CO8405   0.0000
    37 OAP        -45.1050     3.4590    -9.0220 O.3          1 CO8405   0.0000
    38 C9P        -45.8500     1.2940    -9.6900 C.2          1 CO8405   0.0000
    39 O9P        -46.3070     0.4940   -10.4810 O.2          1 CO8405   0.0000
    40 N8P        -45.3150     0.9260    -8.5170 N.am         1 CO8405   0.0000
    41 C7P        -45.4140    -0.4130    -7.9560 C.3          1 CO8405   0.0000
    42 C6P        -46.6800    -0.5490    -7.0990 C.3          1 CO8405   0.0000
    43 C5P        -46.5920     0.2860    -5.8460 C.2          1 CO8405   0.0000
    44 O5P        -45.6000     0.9550    -5.6050 O.2          1 CO8405   0.0000
    45 N4P        -47.6450     0.2230    -5.0410 N.am         1 CO8405   0.0000
    46 C3P        -47.7140     0.9730    -3.8010 C.3          1 CO8405   0.0000
    47 C2P        -47.5720     0.0480    -2.6180 C.3          1 CO8405   0.0000
    48 S1P        -48.1240     0.8370    -1.1410 S.3          1 CO8405   0.0000
    49 C1'        -49.8070     1.0550    -1.4130 C.2          1 CO8405   0.0000
    50 O1'        -50.4160     0.3430    -2.2070 O.2          1 CO8405   0.0000
    51 C2'        -50.6340     2.1050    -0.6780 C.3          1 CO8405   0.0000
    52 C3'        -51.1910     3.2090    -1.5940 C.3          1 CO8405   0.0000
    53 C4'        -51.3750     4.5520    -0.8590 C.3          1 CO8405   0.0000
    54 C5'        -52.1550     5.5950    -1.6570 C.3          1 CO8405   0.0000
    55 C6'        -51.3650     6.8110    -2.1360 C.3          1 CO8405   0.0000
    56 C7'        -52.1090     7.5280    -3.2690 C.3          1 CO8405   0.0000
    57 C8'        -51.2180     8.4170    -4.1150 C.3          1 CO8405   0.0000
    58 H2A        -38.9122     2.6022   -12.0940 H            1 CO8405   0.0000
    59 H6A1       -43.1883     2.2451    -9.0867 H            1 CO8405   0.0000
    60 H6A2       -41.9741     1.0143    -9.1909 H            1 CO8405   0.0000
    61 H8A        -43.7288     6.6772   -11.1536 H            1 CO8405   0.0000
    62 H1B        -40.5870     6.7639   -13.1870 H            1 CO8405   0.0000
    63 H2B        -43.3809     7.2072   -13.5982 H            1 CO8405   0.0000
    64 H7         -42.8171     6.7570   -15.7727 H            1 CO8405   0.0000
    65 H3B        -42.9181     9.2925   -14.5861 H            1 CO8405   0.0000
    66 H4B        -41.1884    10.0760   -12.7986 H            1 CO8405   0.0000
    67 H5B1       -43.3979    10.7500   -12.4595 H            1 CO8405   0.0000
    68 H5B2       -42.9009    10.0651   -11.0628 H            1 CO8405   0.0000
    69 HCP1       -48.1027     5.2987   -10.2977 H            1 CO8405   0.0000
    70 HCP2       -46.6161     5.2900    -9.6219 H            1 CO8405   0.0000
    71 HDP1       -48.1070     1.7627   -11.1492 H            1 CO8405   0.0000
    72 HDP2       -48.9762     3.1337   -11.3267 H            1 CO8405   0.0000
    73 HDP3       -47.5820     2.9380   -12.1541 H            1 CO8405   0.0000
    74 HEP1       -48.1557     2.1724    -8.7138 H            1 CO8405   0.0000
    75 HEP2       -47.5914     3.5805    -8.1094 H            1 CO8405   0.0000
    76 HEP3       -48.9791     3.5591    -8.9699 H            1 CO8405   0.0000
    77 HAP        -45.4032     2.8928   -10.9030 H            1 CO8405   0.0000
    78 H21        -44.6107     4.2200    -9.4422 H            1 CO8405   0.0000
    79 H8P        -44.8156     1.6165    -7.9937 H            1 CO8405   0.0000
    80 H7P1       -44.6114    -0.5907    -7.3866 H            1 CO8405   0.0000
    81 H7P2       -45.4485    -1.0794    -8.7008 H            1 CO8405   0.0000
    82 H6P1       -46.7972    -1.5084    -6.8425 H            1 CO8405   0.0000
    83 H6P2       -47.4690    -0.2485    -7.6349 H            1 CO8405   0.0000
    84 H4P        -48.4158    -0.3602    -5.2973 H            1 CO8405   0.0000
    85 H3P1       -48.5955     1.4422    -3.7484 H            1 CO8405   0.0000
    86 H3P2       -46.9758     1.6474    -3.7824 H            1 CO8405   0.0000
    87 H2P1       -46.6107    -0.2073    -2.5143 H            1 CO8405   0.0000
    88 H2P2       -48.1199    -0.7735    -2.7759 H            1 CO8405   0.0000
    89 H2'1       -50.0552     2.5332     0.0160 H            1 CO8405   0.0000
    90 H2'2       -51.4033     1.6461    -0.2335 H            1 CO8405   0.0000
    91 H3'1       -52.0782     2.9137    -1.9486 H            1 CO8405   0.0000
    92 H3'2       -50.5563     3.3445    -2.3548 H            1 CO8405   0.0000
    93 H4'1       -50.4700     4.9250    -0.6542 H            1 CO8405   0.0000
    94 H4'2       -51.8652     4.3784    -0.0048 H            1 CO8405   0.0000
    95 H5'1       -52.9014     5.9250    -1.0791 H            1 CO8405   0.0000
    96 H5'2       -52.5337     5.1408    -2.4634 H            1 CO8405   0.0000
    97 H6'1       -50.4707     6.5114    -2.4684 H            1 CO8405   0.0000
    98 H6'2       -51.2416     7.4442    -1.3719 H            1 CO8405   0.0000
    99 H7'1       -52.8285     8.0936    -2.8661 H            1 CO8405   0.0000
   100 H7'2       -52.5214     6.8372    -3.8629 H            1 CO8405   0.0000
   101 H8'1       -51.7642     8.8516    -4.8311 H            1 CO8405   0.0000
   102 H8'2       -50.8047     9.1210    -3.5375 H            1 CO8405   0.0000
   103 H8'3       -50.4976     7.8646    -4.5343 H            1 CO8405   0.0000
@<TRIPOS>BOND
     1    1    2      ar
     2    1    6      ar
     3    2    3      ar
     4    3    4      ar
     5    4    5      ar
     6    4   10       1
     7    5    6      ar
     8    5    8       1
     9    6    7       1
    10    8    9       2
    11    9   10       1
    12   10   11       1
    13   11   12       1
    14   11   21       1
    15   12   13       1
    16   12   14       1
    17   14   15       1
    18   14   20       1
    19   15   16       1
    20   16   17      ar
    21   16   18      ar
    22   16   19      ar
    23   20   21       1
    24   20   22       1
    25   22   23       1
    26   23   24       1
    27   24   25      ar
    28   24   26      ar
    29   24   27       1
    30   27   28       1
    31   28   29      ar
    32   28   30      ar
    33   28   31       1
    34   31   33       1
    35   32   33       1
    36   32   34       1
    37   32   35       1
    38   32   36       1
    39   36   37       1
    40   36   38       1
    41   38   39       2
    42   38   40      am
    43   40   41       1
    44   41   42       1
    45   42   43       1
    46   43   44       2
    47   43   45      am
    48   45   46       1
    49   46   47       1
    50   47   48       1
    51   48   49       1
    52   49   50       2
    53   49   51       1
    54   51   52       1
    55   52   53       1
    56   53   54       1
    57   54   55       1
    58   55   56       1
    59   56   57       1
    60    2   58       1
    61    7   59       1
    62    7   60       1
    63    9   61       1
    64   11   62       1
    65   12   63       1
    66   13   64       1
    67   14   65       1
    68   57  103       1
    69   57  102       1
    70   20   66       1
    71   22   67       1
    72   22   68       1
    73   57  101       1
    74   56  100       1
    75   33   69       1
    76   33   70       1
    77   34   71       1
    78   34   72       1
    79   34   73       1
    80   35   74       1
    81   35   75       1
    82   35   76       1
    83   36   77       1
    84   37   78       1
    85   40   79       1
    86   41   80       1
    87   41   81       1
    88   42   82       1
    89   42   83       1
    90   45   84       1
    91   46   85       1
    92   46   86       1
    93   47   87       1
    94   47   88       1
    95   51   89       1
    96   51   90       1
    97   52   91       1
    98   52   92       1
    99   53   93       1
   100   53   94       1
   101   54   95       1
   102   54   96       1
   103   55   97       1
   104   55   98       1
   105   56   99       1
@<TRIPOS>SUBSTRUCTURE
     1 CO8405      1 GROUP             4 A     CO8     0 **** CO8 A 405
