@<TRIPOS>MOLECULE
5ayj_MUA_1_ligand
   18    19     1     0     0
SMALL
NO_CHARGES


@<TRIPOS>ATOM
     1 N1          13.0640    26.9710    67.7600 N.pl3        1 MUA401   0.0000
     2 C2          13.6390    26.2250    68.7480 C.2          1 MUA401   0.0000
     3 O2          13.3260    25.0580    68.8880 O.2          1 MUA401   0.0000
     4 N3          14.5500    26.7900    69.5900 N.pl3        1 MUA401  -1.0000
     5 C4          14.9080    28.0960    69.4630 C.2          1 MUA401   0.0000
     6 C5          14.3440    28.8130    68.4730 C.2          1 MUA401   0.0000
     7 C6          13.4110    28.2490    67.6100 C.2          1 MUA401   0.0000
     8 O6          12.9040    28.8990    66.7210 O.2          1 MUA401   0.0000
     9 N7          14.8570    30.0530    68.5280 N.2          1 MUA401   0.0000
    10 C8          15.7380    30.1300    69.5470 C.2          1 MUA401   0.0000
    11 N9          15.7740    28.9070    70.1320 N.pl3        1 MUA401   0.0000
    12 C10         16.5910    28.5460    71.2350 C.3          1 MUA401   0.0000
    13 O8          16.3870    31.1120    69.8700 O.3          1 MUA401   0.0000
    14 H1          12.3852    26.5603    67.1513 H            1 MUA401   0.0000
    15 H2          17.1265    29.3386    71.5267 H            1 MUA401   0.0000
    16 H3          16.0134    28.2375    71.9908 H            1 MUA401   0.0000
    17 H4          17.2088    27.8076    70.9647 H            1 MUA401   0.0000
    18 H5          17.0160    31.0626    70.6458 H            1 MUA401   0.0000
@<TRIPOS>BOND
     1    1    2       1
     2    1    7       1
     3    2    3       2
     4    2    4       1
     5    4    5       1
     6    5    6       2
     7    5   11       1
     8    6    7       1
     9    6    9       1
    10    7    8       2
    11    9   10       2
    12   10   11       1
    13   10   13       1
    14   11   12       1
    15    1   14       1
    16   12   17       1
    17   12   16       1
    18   12   15       1
    19   13   18       1
@<TRIPOS>SUBSTRUCTURE
     1 MUA401      1 GROUP             4 A     MUA     0 **** MUA A 401
