@<TRIPOS>MOLECULE
./coach420/830c/ligand.pdb
 48 48 0 0 0
SMALL
GASTEIGER

@<TRIPOS>ATOM
      1 ZN         -1.9630   25.6300   53.5710 Zn    272  ZN272       0.0000
      2  C2        -8.8400   27.6210   48.8430 C.2     1  RS11        0.0000
      3  C3        -9.7960   26.8980   49.5520 C.2     1  RS11        0.0000
      4  C4        -9.4490   26.3890   50.7850 C.2     1  RS11        0.0000
      5  C5        -8.1740   26.5880   51.2560 C.2     1  RS11        0.0000
      6  C6        -7.2200   27.3250   50.5210 C.3     1  RS11        0.0000
      7  O11       -7.9490   25.9670   52.4690 O.3     1  RS11        0.0000
      8  C12       -7.3430   26.6340   53.4810 C.ar    1  RS11        0.0000
      9  C13       -6.8690   25.8010   54.4830 C.ar    1  RS11        0.0000
     10  C14       -6.2710   26.3220   55.6000 C.ar    1  RS11        0.0000
     11  C15       -6.1960   27.7030   55.7310 C.ar    1  RS11        0.0000
     12  C16       -6.6340   28.5470   54.7140 C.ar    1  RS11        0.0000
     13  C17       -7.2090   28.0220   53.5770 C.ar    1  RS11        0.0000
     14  S22       -5.5190   28.4130   57.2150 S.O2    1  RS11        0.0000
     15  O23       -5.5820   27.5070   58.3390 O.2     1  RS11        0.0000
     16  O24       -6.2980   29.6010   57.3620 O.2     1  RS11        0.0000
     17  C25       -3.8780   28.9410   56.7980 C.3     1  RS11        0.0000
     18  C26       -2.6760   27.9890   57.0640 C.3     1  RS11        0.0000
     19  C29       -2.6850   27.4130   58.5200 C.3     1  RS11        0.0000
     20  C30       -1.3450   26.8280   58.9610 C.3     1  RS11        0.0000
     21  O31       -0.3120   27.8030   58.7340 O.3     1  RS11        0.0000
     22  C32       -0.1380   28.1300   57.3600 C.3     1  RS11        0.0000
     23  C33       -1.3990   28.8550   56.8740 C.3     1  RS11        0.0000
     24  C40       -2.6820   26.8850   55.9850 C.3     1  RS11        0.0000
     25  N41       -2.7380   25.5740   56.2570 N.3     1  RS11        0.0000
     26  O42       -2.5940   27.1550   54.7780 O.3     1  RS11        0.0000
     27  O43       -2.5310   24.7710   55.1030 O.3     1  RS11        0.0000
     28 CL2        -9.3060   28.2050   47.3000 Cl      1  RS11        0.0000
     29  H1        -6.8310   28.3840   48.7190 H       1  RS11        0.0000
     30  H3       -10.7890   26.7210   49.1550 H       1  RS11        0.0000
     31  H4       -10.1590   25.8230   51.3680 H       1  RS11        0.0000
     32  H6        -6.2240   27.4830   50.8900 H       1  RS11        0.0000
     33  H13       -6.9600   24.7240   54.3960 H       1  RS11        0.0000
     34  H14       -5.8960   25.6480   56.3610 H       1  RS11        0.0000
     35  H16       -6.5200   29.6190   54.8150 H       1  RS11        0.0000
     36  H17       -7.5390   28.6930   52.8100 H       1  RS11        0.0000
     37 H251       -3.7430   29.7730   57.4760 H       1  RS11        0.0000
     38 H252       -3.8740   29.3970   55.8160 H       1  RS11        0.0000
     39 H291       -3.4330   26.6600   58.6530 H       1  RS11        0.0000
     40 H292       -2.9360   28.2030   59.2100 H       1  RS11        0.0000
     41 H301       -1.3580   26.5430   60.0040 H       1  RS11        0.0000
     42 H302       -1.1300   25.9060   58.4320 H       1  RS11        0.0000
     43 H321        0.1040   27.2410   56.7950 H       1  RS11        0.0000
     44 H322        0.7370   28.7590   57.2840 H       1  RS11        0.0000
     45 H331       -1.4560   29.7510   57.4800 H       1  RS11        0.0000
     46 H332       -1.2680   29.2100   55.8620 H       1  RS11        0.0000
     47  HN        -3.0870   25.1880   57.1340 H       1  RS11        0.0000
     48  HO        -2.7900   23.8550   55.3840 H       1  RS11        0.0000
@<TRIPOS>BOND
     1     1    26    1
     2     2    28    1
     3     2     3    2
     4     3    30    1
     5     3     4    1
     6     4     5    2
     7     4    31    1
     8     5     6    1
     9     5     7    1
    10     6    32    1
    11     7     8    1
    12     8    13   ar
    13     8     9   ar
    14     9    33    1
    15     9    10   ar
    16    10    11   ar
    17    10    34    1
    18    11    12   ar
    19    11    14    1
    20    12    13   ar
    21    12    35    1
    22    13    36    1
    23    14    17    1
    24    14    16    2
    25    14    15    2
    26    17    38    1
    27    17    18    1
    28    17    37    1
    29    18    24    1
    30    18    23    1
    31    18    19    1
    32    19    39    1
    33    19    20    1
    34    19    40    1
    35    20    42    1
    36    20    21    1
    37    20    41    1
    38    21    22    1
    39    22    43    1
    40    22    23    1
    41    22    44    1
    42    23    46    1
    43    23    45    1
    44    24    26    1
    45    24    25    1
    46    25    27    1
    47    25    47    1
    48    27    48    1
