@<TRIPOS>MOLECULE
./coach420/3b3f/ligand.pdb
 26 28 0 0 0
SMALL
GASTEIGER

@<TRIPOS>ATOM
      1  N         53.7310   36.7300  135.3100 N.3   481  SAH481     -0.1208
      2  CA        52.6660   35.8370  135.8880 C.3   481  SAH481      0.1952
      3  CB        51.6660   35.3560  134.8440 C.3   481  SAH481      0.0422
      4  CG        52.2800   34.7220  133.6040 C.3   481  SAH481      0.0597
      5  SD        50.9860   34.1220  132.4930 S.3   481  SAH481     -0.1375
      6  C         53.3190   34.6080  136.4870 C.2   481  SAH481      0.3819
      7  O         54.5210   34.4150  136.2120 O.co2 481  SAH481     -0.2441
      8  OXT       52.6710   33.8160  137.2130 O.co2 481  SAH481     -0.2441
      9  C5'       51.2240   35.4480  131.2830 C.3   481  SAH481      0.0898
     10  C4'       50.4340   36.7090  131.6060 C.3   481  SAH481      0.1610
     11  O4'       50.7340   37.6860  130.6520 O.3   481  SAH481     -0.3323
     12  C3'       48.9150   36.5550  131.5820 C.3   481  SAH481      0.2144
     13  O3'       48.4590   37.2020  132.7530 O.3   481  SAH481     -0.2176
     14  C2'       48.4390   37.3130  130.3440 C.3   481  SAH481      0.2337
     15  O2'       47.1840   37.9900  130.4730 O.3   481  SAH481     -0.2155
     16  C1'       49.5520   38.3500  130.2140 C.3   481  SAH481      0.2409
     17  N9        49.8360   38.8400  128.8530 N.ar  481  SAH481     -0.2693
     18  C8        50.0100   38.0660  127.7300 C.ar  481  SAH481      0.1816
     19  N7        50.2810   38.8870  126.7070 N.ar  481  SAH481     -0.2193
     20  C5        50.3050   40.1740  127.1520 C.ar  481  SAH481      0.1518
     21  C6        50.5480   41.3840  126.5070 C.ar  481  SAH481      0.1919
     22  N6        50.8200   41.4090  125.1970 N.pl3 481  SAH481     -0.1054
     23  N1        50.5390   42.5570  127.2250 N.ar  481  SAH481     -0.2040
     24  C2        50.2540   42.5290  128.5770 C.ar  481  SAH481      0.2016
     25  N3        50.0050   41.3220  129.2110 N.ar  481  SAH481     -0.2048
     26  C4        50.0390   40.1580  128.5050 C.ar  481  SAH481      0.1692
@<TRIPOS>BOND
     1     1     2    1
     2     2     3    1
     3     2     6    1
     4     3     4    1
     5     4     5    1
     6     5     9    1
     7     6     7   ar
     8     6     8   ar
     9     9    10    1
    10    10    11    1
    11    10    12    1
    12    11    16    1
    13    12    14    1
    14    12    13    1
    15    14    16    1
    16    14    15    1
    17    16    17    1
    18    17    18   ar
    19    17    26   ar
    20    18    19   ar
    21    19    20   ar
    22    20    21   ar
    23    20    26   ar
    24    21    22    1
    25    21    23   ar
    26    23    24   ar
    27    24    25   ar
    28    25    26   ar
