@<TRIPOS>MOLECULE
5ks7_2BA_1_ligand
   68    74     1     0     0
SMALL
NO_CHARGES


@<TRIPOS>ATOM
     1 P          -22.4570     4.6260   -21.2250 P.3          1 2BA500   0.0000
     2 O1P        -22.9320     6.0260   -21.6290 O.3          1 2BA500   0.0000
     3 O2P        -22.0520     3.5940   -22.2630 O.2          1 2BA500   0.0000
     4 O5'        -21.2400     4.6960   -20.1420 O.3          1 2BA500   0.0000
     5 C5'        -20.5370     3.5040   -19.7820 C.3          1 2BA500   0.0000
     6 C4'        -20.2250     3.3570   -18.2930 C.3          1 2BA500   0.0000
     7 O4'        -18.8230     3.3280   -18.1840 O.3          1 2BA500   0.0000
     8 C3'        -20.6220     4.4340   -17.2620 C.3          1 2BA500   0.0000
     9 O3'        -21.5170     3.8280   -16.3470 O.3          1 2BA500   0.0000
    10 C2'        -19.3540     4.8380   -16.4990 C.3          1 2BA500   0.0000
    11 O2'        -19.5600     4.9560   -15.0850 O.3          1 2BA500   0.0000
    12 C1'        -18.5140     3.6250   -16.8150 C.3          1 2BA500   0.0000
    13 N9         -17.0330     3.6550   -16.7000 N.pl3        1 2BA500   0.0000
    14 C8         -16.1430     4.4450   -17.3490 C.2          1 2BA500   0.0000
    15 N7         -14.8750     4.1170   -17.0190 N.2          1 2BA500   0.0000
    16 C5         -14.9470     3.0850   -16.1620 C.ar         1 2BA500   0.0000
    17 C6         -13.9810     2.2460   -15.4180 C.ar         1 2BA500   0.0000
    18 N6         -12.6470     2.4500   -15.5370 N.pl3        1 2BA500   0.0000
    19 N1         -14.4780     1.2780   -14.6200 N.ar         1 2BA500   0.0000
    20 C2         -15.8080     1.0500   -14.4900 C.ar         1 2BA500   0.0000
    21 N3         -16.7560     1.7700   -15.1340 N.ar         1 2BA500   0.0000
    22 C4         -16.3730     2.7760   -15.9650 C.ar         1 2BA500   0.0000
    23 P1         -22.5060     4.7110   -15.4580 P.3          1 2BA500   0.0000
    24 O1P1       -21.7300     5.9640   -15.0130 O.3          1 2BA500   0.0000
    25 O2P1       -23.1280     3.8080   -14.4090 O.2          1 2BA500   0.0000
    26 O5'1       -23.6600     4.9710   -16.5780 O.3          1 2BA500   0.0000
    27 C5'1       -24.5820     3.9000   -16.8710 C.3          1 2BA500   0.0000
    28 C4'1       -24.6540     3.4860   -18.3460 C.3          1 2BA500   0.0000
    29 O4'1       -25.9950     3.0860   -18.6840 O.3          1 2BA500   0.0000
    30 C3'1       -24.3670     4.5510   -19.3930 C.3          1 2BA500   0.0000
    31 O3'1       -23.5990     3.8800   -20.3780 O.3          1 2BA500   0.0000
    32 C2'1       -25.7130     4.9650   -19.9870 C.3          1 2BA500   0.0000
    33 O2'1       -25.6400     5.3850   -21.3430 O.3          1 2BA500   0.0000
    34 C1'1       -26.4620     3.6680   -19.9400 C.3          1 2BA500   0.0000
    35 N91        -27.9440     3.7470   -19.9860 N.pl3        1 2BA500   0.0000
    36 C81        -28.7180     4.5890   -19.2760 C.2          1 2BA500   0.0000
    37 N71        -30.0440     4.3360   -19.4830 N.2          1 2BA500   0.0000
    38 C51        -30.1250     3.3110   -20.3420 C.ar         1 2BA500   0.0000
    39 C61        -31.2410     2.5700   -20.9830 C.ar         1 2BA500   0.0000
    40 N61        -32.5510     2.8990   -20.7350 N.pl3        1 2BA500   0.0000
    41 N11        -30.8830     1.5600   -21.8120 N.ar         1 2BA500   0.0000
    42 C21        -29.5830     1.2530   -22.0640 C.ar         1 2BA500   0.0000
    43 N31        -28.5410     1.9020   -21.5160 N.ar         1 2BA500   0.0000
    44 C41        -28.7420     2.9160   -20.6590 C.ar         1 2BA500   0.0000
    45 H1P        -22.3233     6.7123   -21.2309 H            1 2BA500   0.0000
    46 H5'1       -19.6711     3.4925   -20.2821 H            1 2BA500   0.0000
    47 H5'2       -21.0931     2.7209   -20.0603 H            1 2BA500   0.0000
    48 H4'        -20.5830     2.4766   -17.9820 H            1 2BA500   0.0000
    49 H3'        -21.0420     5.2241   -17.7085 H            1 2BA500   0.0000
    50 H2'        -18.9498     5.6700   -16.8789 H            1 2BA500   0.0000
    51 H7         -20.5044     5.2329   -14.9077 H            1 2BA500   0.0000
    52 H1'        -18.8487     2.8672   -16.2549 H            1 2BA500   0.0000
    53 H9         -16.3920     5.1736   -17.9871 H            1 2BA500   0.0000
    54 H10        -12.0060     1.8753   -15.0282 H            1 2BA500   0.0000
    55 H11        -12.3034     3.1752   -16.1336 H            1 2BA500   0.0000
    56 H12        -16.1045     0.3103   -13.8860 H            1 2BA500   0.0000
    57 H13        -22.1935     6.7818   -15.3542 H            1 2BA500   0.0000
    58 H14        -25.4953     4.1914   -16.5865 H            1 2BA500   0.0000
    59 H15        -24.3063     3.0999   -16.3382 H            1 2BA500   0.0000
    60 H16        -24.0385     2.7120   -18.4950 H            1 2BA500   0.0000
    61 H17        -23.8756     5.3309   -19.0055 H            1 2BA500   0.0000
    62 H18        -26.1582     5.6578   -19.4197 H            1 2BA500   0.0000
    63 H19        -24.7436     5.7921   -21.5181 H            1 2BA500   0.0000
    64 H20        -26.1494     3.0913   -20.6948 H            1 2BA500   0.0000
    65 H21        -28.3673     5.3070   -18.6747 H            1 2BA500   0.0000
    66 H22        -33.2874     2.3870   -21.1772 H            1 2BA500   0.0000
    67 H23        -32.7685     3.6506   -20.1122 H            1 2BA500   0.0000
    68 H24        -29.3905     0.5005   -22.6938 H            1 2BA500   0.0000
@<TRIPOS>BOND
     1    1    2       1
     2    1    3       2
     3    1    4       1
     4    1   31       1
     5    4    5       1
     6    5    6       1
     7    6    7       1
     8    6    8       1
     9    7   12       1
    10    8    9       1
    11    8   10       1
    12    9   23       1
    13   10   11       1
    14   10   12       1
    15   12   13       1
    16   13   14       1
    17   13   22       1
    18   14   15       2
    19   15   16       1
    20   16   17      ar
    21   16   22      ar
    22   17   18       1
    23   17   19      ar
    24   19   20      ar
    25   20   21      ar
    26   21   22      ar
    27   23   24       1
    28   23   25       2
    29   23   26       1
    30   26   27       1
    31   27   28       1
    32   28   29       1
    33   28   30       1
    34   29   34       1
    35   30   31       1
    36   30   32       1
    37   32   33       1
    38   32   34       1
    39   34   35       1
    40   35   36       1
    41   35   44       1
    42   36   37       2
    43   37   38       1
    44   38   39      ar
    45   38   44      ar
    46   39   40       1
    47   39   41      ar
    48   41   42      ar
    49   42   43      ar
    50   43   44      ar
    51    2   45       1
    52    5   46       1
    53    5   47       1
    54    6   48       1
    55    8   49       1
    56   10   50       1
    57   11   51       1
    58   12   52       1
    59   14   53       1
    60   18   54       1
    61   18   55       1
    62   20   56       1
    63   24   57       1
    64   27   58       1
    65   27   59       1
    66   28   60       1
    67   30   61       1
    68   32   62       1
    69   33   63       1
    70   34   64       1
    71   36   65       1
    72   40   66       1
    73   40   67       1
    74   42   68       1
@<TRIPOS>SUBSTRUCTURE
     1 2BA500      1 GROUP             4 B     2BA     0 **** 2BA B 500
