@<TRIPOS>MOLECULE
4c8g_C5P_3_ligand
   33    34     1     0     0
SMALL
NO_CHARGES


@<TRIPOS>ATOM
     1 O3P         -1.2580    22.9960    18.4380 O.co2        1 C5P1163   0.0000
     2 P            0.1480    22.4940    18.4040 P.3          1 C5P1163   0.0000
     3 O1P          0.4450    21.5860    19.5350 O.co2        1 C5P1163  -1.0000
     4 O2P          0.4970    21.8890    17.0520 O.co2        1 C5P1163  -1.0000
     5 O5'          1.1560    23.6920    18.5550 O.3          1 C5P1163   0.0000
     6 C5'          1.4470    24.5800    17.4650 C.3          1 C5P1163   0.0000
     7 C4'          2.5560    25.5550    17.8850 C.3          1 C5P1163   0.0000
     8 O4'          2.2200    26.2940    19.0700 O.3          1 C5P1163   0.0000
     9 C3'          3.7900    24.7830    18.2950 C.3          1 C5P1163   0.0000
    10 O3'          4.6480    24.3640    17.2240 O.3          1 C5P1163   0.0000
    11 C2'          4.5070    25.7380    19.2010 C.3          1 C5P1163   0.0000
    12 O2'          5.1480    26.4720    18.2340 O.3          1 C5P1163   0.0000
    13 C1'          3.4240    26.6060    19.8080 C.3          1 C5P1163   0.0000
    14 N1           3.0840    26.2470    21.2040 N.pl3        1 C5P1163   0.0000
    15 C2           3.4020    27.1450    22.2550 C.2          1 C5P1163   0.0000
    16 N3           3.0210    26.8900    23.5410 N.2          1 C5P1163   0.0000
    17 C4           2.3500    25.7470    23.8210 C.2          1 C5P1163   0.0000
    18 C5           2.0100    24.8310    22.8140 C.2          1 C5P1163   0.0000
    19 C6           2.3930    25.1080    21.5080 C.2          1 C5P1163   0.0000
    20 O2           4.0240    28.1910    21.9810 O.2          1 C5P1163   0.0000
    21 N4           1.9950    25.5230    25.0850 N.pl3        1 C5P1163   0.0000
    22 H5'1         0.6238    25.0943    17.2246 H            1 C5P1163   0.0000
    23 H5'2         1.7512    24.0491    16.6741 H            1 C5P1163   0.0000
    24 H4'          2.7709    26.1805    17.1349 H            1 C5P1163   0.0000
    25 H3'          3.5117    23.9803    18.8225 H            1 C5P1163   0.0000
    26 H5           5.1106    23.5152    17.4801 H            1 C5P1163   0.0000
    27 H2'          5.1149    25.3044    19.8662 H            1 C5P1163   0.0000
    28 H7           6.0384    26.0608    18.0389 H            1 C5P1163   0.0000
    29 H1'          3.6535    27.5762    19.7306 H            1 C5P1163   0.0000
    30 H9           1.5030    23.9970    23.0318 H            1 C5P1163   0.0000
    31 H10          2.1596    24.4642    20.7792 H            1 C5P1163   0.0000
    32 H11          1.4987    24.6886    25.3246 H            1 C5P1163   0.0000
    33 H12          2.2248    26.1892    25.7945 H            1 C5P1163   0.0000
@<TRIPOS>BOND
     1    1    2      ar
     2    2    3      ar
     3    2    4      ar
     4    2    5       1
     5    5    6       1
     6    6    7       1
     7    7    8       1
     8    7    9       1
     9    8   13       1
    10    9   10       1
    11    9   11       1
    12   11   12       1
    13   11   13       1
    14   13   14       1
    15   14   15       1
    16   14   19       1
    17   15   16       1
    18   15   20       2
    19   16   17       2
    20   17   18       1
    21   17   21       1
    22   18   19       2
    23   21   33       1
    24   21   32       1
    25    6   22       1
    26    6   23       1
    27    7   24       1
    28    9   25       1
    29   10   26       1
    30   11   27       1
    31   12   28       1
    32   13   29       1
    33   18   30       1
    34   19   31       1
@<TRIPOS>SUBSTRUCTURE
     1 C5P1163     1 GROUP             4 C     C5P     0 **** C5P C1163
