@<TRIPOS>MOLECULE
2q16_ITT_1_ligand
   40    42     1     0     0
SMALL
NO_CHARGES


@<TRIPOS>ATOM
     1 PG          41.6030     8.9910    11.4300 P.3          1 ITT6246   0.0000
     2 O1G         40.3800     9.7470    11.8980 O.co2        1 ITT6246   0.0000
     3 O2G         42.0050     7.9310    12.4220 O.co2        1 ITT6246  -1.0000
     4 O3G         42.6750     9.9420    10.9920 O.co2        1 ITT6246  -1.0000
     5 PB          40.8120     6.7240     9.7980 P.3          1 ITT6246   0.0000
     6 O1B         40.0350     6.6660     8.5190 O.co2        1 ITT6246   0.0000
     7 O2B         41.9890     5.8050     9.9880 O.co2        1 ITT6246  -1.0000
     8 O3B         41.1940     8.2610    10.0600 O.3          1 ITT6246   0.0000
     9 PA          39.4800     5.2680    12.0030 P.3          1 ITT6246   0.0000
    10 O1A         40.6780     4.5210    12.5460 O.co2        1 ITT6246   0.0000
    11 O2A         38.4750     5.9200    12.9110 O.co2        1 ITT6246  -1.0000
    12 O3A         39.8100     6.4800    11.0030 O.3          1 ITT6246   0.0000
    13 O5'         38.8220     4.3080    10.9460 O.3          1 ITT6246   0.0000
    14 C5'         37.4570     3.9870    10.7590 C.2          1 ITT6246   0.0000
    15 C4'         36.9190     3.4610     9.6540 C.2          1 ITT6246   0.0000
    16 O4'         35.5440     3.1280     9.7500 O.3          1 ITT6246   0.0000
    17 C3'         37.4160     3.3890     8.2590 C.3          1 ITT6246   0.0000
    18 O3'         37.3970     2.0650     7.7050 O.3          1 ITT6246   0.0000
    19 C2'         36.1670     4.1000     7.7320 C.3          1 ITT6246   0.0000
    20 O2'         35.9980     4.0330     6.2860 O.3          1 ITT6246   0.0000
    21 C1'         35.0080     3.3940     8.4690 C.3          1 ITT6246   0.0000
    22 N9          33.9610     4.3970     8.6660 N.pl3        1 ITT6246   0.0000
    23 C8          33.9090     5.3030     9.6640 C.2          1 ITT6246   0.0000
    24 N7          32.8070     6.0650     9.4680 N.2          1 ITT6246   0.0000
    25 C5          32.2020     5.6150     8.3320 C.2          1 ITT6246   0.0000
    26 C6          31.0720     5.9820     7.5860 C.2          1 ITT6246   0.0000
    27 O6          30.2680     7.0100     7.9300 O.2          1 ITT6246   0.0000
    28 N1          30.7490     5.2880     6.4890 N.pl3        1 ITT6246   0.0000
    29 C2          31.4910     4.2620     6.0350 C.2          1 ITT6246   0.0000
    30 N3          32.5780     3.8920     6.6880 N.2          1 ITT6246   0.0000
    31 C4          32.9480     4.5650     7.8340 C.2          1 ITT6246   0.0000
    32 H5'         36.8382     4.1702    11.5229 H            1 ITT6246   0.0000
    33 H3'         38.2686     3.8872     8.1013 H            1 ITT6246   0.0000
    34 H3          37.7435     2.0910     6.7673 H            1 ITT6246   0.0000
    35 H2'         36.1953     5.0594     8.0127 H            1 ITT6246   0.0000
    36 H5          36.4014     3.1850     5.9422 H            1 ITT6246   0.0000
    37 H1'         34.6840     2.5730     7.9990 H            1 ITT6246   0.0000
    38 H7          34.5653     5.3952    10.4128 H            1 ITT6246   0.0000
    39 H8          29.9228     5.5421     5.9863 H            1 ITT6246   0.0000
    40 H9          31.2195     3.7790     5.2025 H            1 ITT6246   0.0000
@<TRIPOS>BOND
     1    1    2      ar
     2    1    3      ar
     3    1    4      ar
     4    1    8       1
     5    5    6      ar
     6    5    7      ar
     7    5    8       1
     8    5   12       1
     9    9   10      ar
    10    9   11      ar
    11    9   12       1
    12    9   13       1
    13   13   14       1
    14   14   15       2
    15   15   16       1
    16   15   17       1
    17   16   21       1
    18   17   18       1
    19   17   19       1
    20   19   20       1
    21   19   21       1
    22   21   22       1
    23   22   23       1
    24   22   31       1
    25   23   24       2
    26   24   25       1
    27   25   26       1
    28   25   31       2
    29   26   27       2
    30   26   28       1
    31   28   29       1
    32   29   30       2
    33   30   31       1
    34   29   40       1
    35   28   39       1
    36   23   38       1
    37   21   37       1
    38   14   32       1
    39   17   33       1
    40   18   34       1
    41   19   35       1
    42   20   36       1
@<TRIPOS>SUBSTRUCTURE
     1 ITT6246     1 GROUP             4 A     ITT     0 **** ITT A6246
