@<TRIPOS>MOLECULE
4bur_FAD_9_ligand
   84    89     1     0     0
SMALL
NO_CHARGES


@<TRIPOS>ATOM
     1 PA          72.1430   -76.4490   -54.2880 P.3          1 FAD1612   0.0000
     2 O1A         73.4560   -77.0150   -53.9160 O.co2        1 FAD1612   0.0000
     3 O2A         71.6540   -76.6240   -55.6630 O.co2        1 FAD1612  -1.0000
     4 O5B         71.0510   -77.1170   -53.2530 O.3          1 FAD1612   0.0000
     5 C5B         69.6730   -76.6980   -53.2020 C.3          1 FAD1612   0.0000
     6 C4B         68.8320   -77.7910   -52.5520 C.3          1 FAD1612   0.0000
     7 O4B         67.4330   -77.3790   -52.4730 O.3          1 FAD1612   0.0000
     8 C3B         68.8130   -79.0410   -53.4140 C.3          1 FAD1612   0.0000
     9 O3B         68.7930   -80.1970   -52.5280 O.3          1 FAD1612   0.0000
    10 C2B         67.4730   -78.9310   -54.1070 C.3          1 FAD1612   0.0000
    11 O2B         67.0940   -80.2140   -54.5630 O.3          1 FAD1612   0.0000
    12 C1B         66.6460   -78.5100   -52.9090 C.3          1 FAD1612   0.0000
    13 N9A         65.3050   -77.9480   -53.1840 N.pl3        1 FAD1612   0.0000
    14 C8A         64.8980   -77.2630   -54.2470 C.2          1 FAD1612   0.0000
    15 N7A         63.6200   -76.9110   -54.0700 N.2          1 FAD1612   0.0000
    16 C5A         63.2220   -77.3740   -52.8860 C.ar         1 FAD1612   0.0000
    17 C6A         62.0490   -77.2950   -52.2390 C.ar         1 FAD1612   0.0000
    18 N6A         61.0530   -76.6540   -52.8330 N.pl3        1 FAD1612   0.0000
    19 N1A         61.8760   -77.8430   -51.0370 N.ar         1 FAD1612   0.0000
    20 C2A         62.9450   -78.5140   -50.4380 C.ar         1 FAD1612   0.0000
    21 N3A         64.1610   -78.5790   -51.1230 N.ar         1 FAD1612   0.0000
    22 C4A         64.2750   -78.0100   -52.3370 C.ar         1 FAD1612   0.0000
    23 N1          81.1100   -73.9140   -58.2550 N.2          1 FAD1612   0.0000
    24 C2          82.4090   -73.3800   -58.1830 C.2          1 FAD1612   0.0000
    25 O2          82.5830   -72.1950   -57.9240 O.2          1 FAD1612   0.0000
    26 N3          83.5210   -74.1730   -58.3880 N.pl3        1 FAD1612   0.0000
    27 C4          83.3310   -75.5140   -58.6750 C.2          1 FAD1612   0.0000
    28 O4          84.3620   -76.1710   -58.8640 O.2          1 FAD1612   0.0000
    29 C4X         82.0280   -76.0660   -58.7600 C.2          1 FAD1612   0.0000
    30 N5          81.8450   -77.3670   -59.0660 N.2          1 FAD1612   0.0000
    31 C5X         80.6130   -77.8400   -59.3680 C.ar         1 FAD1612   0.0000
    32 C6          80.4560   -79.1270   -59.8840 C.ar         1 FAD1612   0.0000
    33 C7          79.1910   -79.6350   -60.1930 C.ar         1 FAD1612   0.0000
    34 C7M         79.0310   -80.9240   -60.7080 C.3          1 FAD1612   0.0000
    35 C8          78.0690   -78.8460   -59.9790 C.ar         1 FAD1612   0.0000
    36 C8M         76.8030   -79.3560   -60.2720 C.3          1 FAD1612   0.0000
    37 C9          78.2180   -77.5590   -59.4550 C.ar         1 FAD1612   0.0000
    38 C9A         79.4840   -77.0460   -59.1550 C.ar         1 FAD1612   0.0000
    39 N10         79.6230   -75.8060   -58.6230 N.pl3        1 FAD1612   0.0000
    40 C10         80.8920   -75.2700   -58.5450 C.2          1 FAD1612   0.0000
    41 C1'         78.3790   -75.1580   -57.9950 C.3          1 FAD1612   0.0000
    42 C2'         78.4070   -75.3320   -56.4710 C.3          1 FAD1612   0.0000
    43 O2'         78.8350   -76.6510   -56.1990 O.3          1 FAD1612   0.0000
    44 C3'         77.1210   -75.1010   -55.6160 C.3          1 FAD1612   0.0000
    45 O3'         76.2940   -76.2510   -55.4550 O.3          1 FAD1612   0.0000
    46 C4'         76.1930   -74.0450   -56.0880 C.3          1 FAD1612   0.0000
    47 O4'         76.9490   -72.9940   -56.7530 O.3          1 FAD1612   0.0000
    48 C5'         75.5170   -73.5830   -54.7700 C.3          1 FAD1612   0.0000
    49 O5'         74.5990   -74.5220   -54.1920 O.3          1 FAD1612   0.0000
    50 P           73.1850   -74.0040   -53.3660 P.3          1 FAD1612   0.0000
    51 O1P         72.8790   -72.5670   -53.6250 O.co2        1 FAD1612   0.0000
    52 O2P         73.2470   -74.5170   -51.9780 O.co2        1 FAD1612  -1.0000
    53 O3P         71.9780   -74.8750   -53.9800 O.3          1 FAD1612   0.0000
    54 H5B1        69.3413   -76.5301   -54.1303 H            1 FAD1612   0.0000
    55 H5B2        69.6000   -75.8577   -52.6649 H            1 FAD1612   0.0000
    56 H4B         69.1834   -78.0034   -51.6402 H            1 FAD1612   0.0000
    57 H3B         69.5753   -79.0696   -54.0606 H            1 FAD1612   0.0000
    58 H5          68.7802   -81.0350   -53.0736 H            1 FAD1612   0.0000
    59 H2B         67.4712   -78.2467   -54.8362 H            1 FAD1612   0.0000
    60 H7          66.0965   -80.2852   -54.5668 H            1 FAD1612   0.0000
    61 H1B         66.6112   -79.2271   -52.2129 H            1 FAD1612   0.0000
    62 H8A         65.4558   -77.0461   -55.0482 H            1 FAD1612   0.0000
    63 H6A1        60.1659   -76.5771   -52.3779 H            1 FAD1612   0.0000
    64 H6A2        61.1884   -76.2472   -53.7364 H            1 FAD1612   0.0000
    65 H2A         62.8421   -78.9386   -49.5385 H            1 FAD1612   0.0000
    66 H13         84.4419   -73.7876   -58.3305 H            1 FAD1612   0.0000
    67 H14         81.2638   -79.6966   -60.0356 H            1 FAD1612   0.0000
    68 H7M1        78.0594   -81.1027   -60.8632 H            1 FAD1612   0.0000
    69 H7M2        79.5265   -81.0012   -61.5732 H            1 FAD1612   0.0000
    70 H7M3        79.3926   -81.5906   -60.0562 H            1 FAD1612   0.0000
    71 H8M1        76.1094   -78.6667   -60.0628 H            1 FAD1612   0.0000
    72 H8M2        76.7555   -79.5929   -61.2424 H            1 FAD1612   0.0000
    73 H8M3        76.6373   -80.1737   -59.7207 H            1 FAD1612   0.0000
    74 H21         77.4074   -76.9966   -59.2921 H            1 FAD1612   0.0000
    75 H1'1        77.5576   -75.5940   -58.3627 H            1 FAD1612   0.0000
    76 H1'2        78.3664   -74.1829   -58.2165 H            1 FAD1612   0.0000
    77 H2'         79.1104   -74.7155   -56.1172 H            1 FAD1612   0.0000
    78 H25         78.1241   -77.1333   -55.6872 H            1 FAD1612   0.0000
    79 H3'         77.4250   -74.8323   -54.7020 H            1 FAD1612   0.0000
    80 H27         75.4982   -76.0139   -54.8977 H            1 FAD1612   0.0000
    81 H4'         75.5131   -74.4321   -56.7108 H            1 FAD1612   0.0000
    82 H29         76.4771   -72.1199   -56.6375 H            1 FAD1612   0.0000
    83 H5'1        75.0170   -72.7377   -54.9586 H            1 FAD1612   0.0000
    84 H5'2        76.2370   -73.4020   -54.1001 H            1 FAD1612   0.0000
@<TRIPOS>BOND
     1    1    2      ar
     2    1    3      ar
     3    1    4       1
     4    1   53       1
     5    4    5       1
     6    5    6       1
     7    6    7       1
     8    6    8       1
     9    7   12       1
    10    8    9       1
    11    8   10       1
    12   10   11       1
    13   10   12       1
    14   12   13       1
    15   13   14       1
    16   13   22       1
    17   14   15       2
    18   15   16       1
    19   16   17      ar
    20   16   22      ar
    21   17   18       1
    22   17   19      ar
    23   19   20      ar
    24   20   21      ar
    25   21   22      ar
    26   23   24       1
    27   23   40       2
    28   24   25       2
    29   24   26       1
    30   26   27       1
    31   27   28       2
    32   27   29       1
    33   29   30       2
    34   29   40       1
    35   30   31       1
    36   31   32      ar
    37   31   38      ar
    38   32   33      ar
    39   33   34       1
    40   33   35      ar
    41   35   36       1
    42   35   37      ar
    43   37   38      ar
    44   38   39       1
    45   39   40       1
    46   39   41       1
    47   41   42       1
    48   42   43       1
    49   42   44       1
    50   44   45       1
    51   44   46       1
    52   46   47       1
    53   46   48       1
    54   48   49       1
    55   49   50       1
    56   50   51      ar
    57   50   52      ar
    58   50   53       1
    59   48   84       1
    60    5   54       1
    61    5   55       1
    62    6   56       1
    63    8   57       1
    64    9   58       1
    65   10   59       1
    66   11   60       1
    67   12   61       1
    68   14   62       1
    69   18   63       1
    70   18   64       1
    71   20   65       1
    72   26   66       1
    73   32   67       1
    74   34   68       1
    75   34   69       1
    76   34   70       1
    77   36   71       1
    78   36   72       1
    79   36   73       1
    80   37   74       1
    81   41   75       1
    82   41   76       1
    83   42   77       1
    84   43   78       1
    85   44   79       1
    86   45   80       1
    87   46   81       1
    88   47   82       1
    89   48   83       1
@<TRIPOS>SUBSTRUCTURE
     1 FAD1612     1 GROUP             4 C     FAD     0 **** FAD C1612
