@<TRIPOS>MOLECULE
3juq_AJD_1_ligand
   32    33     1     0     0
SMALL
NO_CHARGES


@<TRIPOS>ATOM
     1 OAA         45.9040    -4.2940    93.0270 O.co2        1 AJD500   0.0000
     2 OAB         43.9650    -4.1030    91.9600 O.co2        1 AJD500  -1.0000
     3 BRAC        47.9650     0.5310    93.7850 Br           1 AJD500   0.0000
     4 CAD         45.0680     0.4840    93.5450 C.ar         1 AJD500   0.0000
     5 CAE         43.8470    -0.1200    93.3260 C.ar         1 AJD500   0.0000
     6 CAF         46.1610    -1.5770    93.1810 C.ar         1 AJD500   0.0000
     7 CAG         38.7380    -1.6830    92.0470 C.3          1 AJD500   0.0000
     8 CAH         38.8590    -0.7320    90.8700 C.3          1 AJD500   0.0000
     9 CAI         40.0970    -2.2580    92.4420 C.3          1 AJD500   0.0000
    10 CAJ         41.2900    -0.4540    91.2570 C.3          1 AJD500   0.0000
    11 NAK         39.9780     0.1590    91.1160 N.4          1 AJD500   1.0000
    12 NAL         42.5360    -2.0140    92.7670 N.pl3        1 AJD500   0.0000
    13 CAM         44.9330    -3.6270    92.6050 C.2          1 AJD500   0.0000
    14 CAN         46.2350    -0.2560    93.4970 C.ar         1 AJD500   0.0000
    15 CAO         43.7470    -1.4550    92.9830 C.ar         1 AJD500   0.0000
    16 CAP         44.9280    -2.1820    92.9270 C.ar         1 AJD500   0.0000
    17 CAQ         41.2850    -1.2470    92.5690 C.3          1 AJD500   0.0000
    18 HAD         45.1092     1.4640    93.7398 H            1 AJD500   0.0000
    19 HAE         43.0121     0.4227    93.4179 H            1 AJD500   0.0000
    20 HAF         46.9986    -2.1209    93.1300 H            1 AJD500   0.0000
    21 HAG1        38.1273    -2.4343    91.7967 H            1 AJD500   0.0000
    22 HAG2        38.3551    -1.1880    92.8270 H            1 AJD500   0.0000
    23 HAH1        38.0173    -0.2000    90.7774 H            1 AJD500   0.0000
    24 HAH2        39.0189    -1.2516    90.0307 H            1 AJD500   0.0000
    25 HAI1        40.3501    -2.9360    91.7519 H            1 AJD500   0.0000
    26 HAI2        39.9881    -2.7087    93.3280 H            1 AJD500   0.0000
    27 HAJ1        41.9965     0.2531    91.2874 H            1 AJD500   0.0000
    28 HAJ2        41.4654    -1.0676    90.4871 H            1 AJD500   0.0000
    29 HAK1        39.7859     0.6589    91.9605 H            1 AJD500   0.0000
    30 HAL         42.4809    -3.0121    92.7390 H            1 AJD500   0.0000
    31 HAQ         41.1323    -0.6318    93.3425 H            1 AJD500   0.0000
    32 HAK2        40.0257     0.8020    90.3516 H            1 AJD500   0.0000
@<TRIPOS>BOND
     1    1   13      ar
     2    2   13      ar
     3    3   14       1
     4    4    5      ar
     5    4   14      ar
     6    5   15      ar
     7    6   14      ar
     8    6   16      ar
     9    7    8       1
    10    7    9       1
    11    8   11       1
    12    9   17       1
    13   10   11       1
    14   10   17       1
    15   12   15       1
    16   12   17       1
    17   13   16       1
    18   15   16      ar
    19   17   31       1
    20    4   18       1
    21    5   19       1
    22    6   20       1
    23    7   21       1
    24    7   22       1
    25    8   23       1
    26    8   24       1
    27    9   25       1
    28    9   26       1
    29   10   27       1
    30   10   28       1
    31   11   29       1
    32   12   30       1
    33   11   32       1
@<TRIPOS>SUBSTRUCTURE
     1 AJD500      1 GROUP             4 A     AJD     0 **** AJD A 500
