@<TRIPOS>MOLECULE
1wv4_FMN_2_ligand
   50    52     1     0     0
SMALL
NO_CHARGES


@<TRIPOS>ATOM
     1 N1          51.9190    38.3390    47.3980 N.2          1 FMN1250   0.0000
     2 C2          52.9030    37.4440    47.1970 C.2          1 FMN1250   0.0000
     3 O2          54.0400    37.6380    47.5830 O.2          1 FMN1250   0.0000
     4 N3          52.6200    36.1240    46.5620 N.pl3        1 FMN1250   0.0000
     5 C4          51.3300    35.7290    46.1120 C.2          1 FMN1250   0.0000
     6 O4          51.2320    34.5830    45.6540 O.2          1 FMN1250   0.0000
     7 C4A         50.2110    36.7430    46.3130 C.2          1 FMN1250   0.0000
     8 N5          48.8750    36.5070    45.9730 N.2          1 FMN1250   0.0000
     9 C5A         47.7800    37.3730    46.3280 C.ar         1 FMN1250   0.0000
    10 C6          46.3850    36.9880    46.0640 C.ar         1 FMN1250   0.0000
    11 C7          45.2870    37.7690    46.5550 C.ar         1 FMN1250   0.0000
    12 C7M         43.8000    37.3180    46.3380 C.3          1 FMN1250   0.0000
    13 C8          45.5720    39.0040    47.3170 C.ar         1 FMN1250   0.0000
    14 C8M         44.5120    39.9220    47.9440 C.3          1 FMN1250   0.0000
    15 C9          46.9260    39.4050    47.5410 C.ar         1 FMN1250   0.0000
    16 C9A         48.0830    38.6530    47.0840 C.ar         1 FMN1250   0.0000
    17 N10         49.5740    38.9510    47.3380 N.pl3        1 FMN1250   0.0000
    18 C10         50.6010    38.0780    47.0200 C.2          1 FMN1250   0.0000
    19 C1'         49.9840    40.2850    48.0530 C.3          1 FMN1250   0.0000
    20 C2'         50.2570    40.1120    49.6160 C.3          1 FMN1250   0.0000
    21 O2'         49.0070    40.1620    50.2390 O.3          1 FMN1250   0.0000
    22 C3'         51.2860    41.1180    50.1760 C.3          1 FMN1250   0.0000
    23 O3'         50.8920    42.4380    49.9880 O.3          1 FMN1250   0.0000
    24 C4'         52.6520    41.0370    49.5420 C.3          1 FMN1250   0.0000
    25 O4'         53.1130    39.6950    49.2840 O.3          1 FMN1250   0.0000
    26 C5'         53.7810    41.7570    50.4000 C.3          1 FMN1250   0.0000
    27 O5'         53.4800    41.5190    51.9540 O.3          1 FMN1250   0.0000
    28 P           54.6160    41.6590    52.9760 P.3          1 FMN1250   0.0000
    29 O1P         53.8000    41.3760    54.2460 O.co2        1 FMN1250   0.0000
    30 O2P         55.7970    40.8390    52.7470 O.co2        1 FMN1250  -1.0000
    31 O3P         55.1190    43.0750    52.6380 O.co2        1 FMN1250  -1.0000
    32 H1          53.3783    35.4823    46.4465 H            1 FMN1250   0.0000
    33 H2          46.1982    36.1633    45.5302 H            1 FMN1250   0.0000
    34 H7M1        43.1844    37.9898    46.7500 H            1 FMN1250   0.0000
    35 H7M2        43.6118    37.2503    45.3582 H            1 FMN1250   0.0000
    36 H7M3        43.6560    36.4265    46.7675 H            1 FMN1250   0.0000
    37 H8M1        44.9633    40.6873    48.4031 H            1 FMN1250   0.0000
    38 H8M2        43.9084    40.2721    47.2277 H            1 FMN1250   0.0000
    39 H8M3        43.9742    39.4043    48.6094 H            1 FMN1250   0.0000
    40 H9          47.0869    40.2549    48.0428 H            1 FMN1250   0.0000
    41 H1'1        49.2458    40.9486    47.9322 H            1 FMN1250   0.0000
    42 H1'2        50.8175    40.6315    47.6226 H            1 FMN1250   0.0000
    43 H2'         50.6268    39.1936    49.7569 H            1 FMN1250   0.0000
    44 H13         48.6270    39.2389    50.2984 H            1 FMN1250   0.0000
    45 H3'         51.3840    40.9551    51.1578 H            1 FMN1250   0.0000
    46 H15         51.5869    43.0502    50.3652 H            1 FMN1250   0.0000
    47 H4'         52.6004    41.5087    48.6618 H            1 FMN1250   0.0000
    48 H17         52.4766    39.2376    48.6629 H            1 FMN1250   0.0000
    49 H5'1        53.7781    42.7375    50.2036 H            1 FMN1250   0.0000
    50 H5'2        54.6749    41.3733    50.1684 H            1 FMN1250   0.0000
@<TRIPOS>BOND
     1    1    2       1
     2    1   18       2
     3    2    3       2
     4    2    4       1
     5    4    5       1
     6    5    6       2
     7    5    7       1
     8    7    8       2
     9    7   18       1
    10    8    9       1
    11    9   10      ar
    12    9   16      ar
    13   10   11      ar
    14   11   12       1
    15   11   13      ar
    16   13   14       1
    17   13   15      ar
    18   15   16      ar
    19   16   17       1
    20   17   18       1
    21   17   19       1
    22   19   20       1
    23   20   21       1
    24   20   22       1
    25   22   23       1
    26   22   24       1
    27   24   25       1
    28   24   26       1
    29   26   27       1
    30   27   28       1
    31   28   29      ar
    32   28   30      ar
    33   28   31      ar
    34    4   32       1
    35   10   33       1
    36   12   34       1
    37   12   35       1
    38   12   36       1
    39   14   37       1
    40   14   38       1
    41   14   39       1
    42   15   40       1
    43   19   41       1
    44   19   42       1
    45   20   43       1
    46   21   44       1
    47   22   45       1
    48   23   46       1
    49   24   47       1
    50   25   48       1
    51   26   49       1
    52   26   50       1
@<TRIPOS>SUBSTRUCTURE
     1 FMN1250     1 GROUP             4 B     FMN     0 **** FMN B1250
