@<TRIPOS>MOLECULE
2ou2_ACO_1_ligand
   85    87     1     0     0
SMALL
NO_CHARGES


@<TRIPOS>ATOM
     1 N1A         23.8270    29.4040     9.3270 N.ar         1 ACO500   0.0000
     2 C2A         23.0270    28.9970    10.3320 C.ar         1 ACO500   0.0000
     3 N3A         23.0580    27.7350    10.7800 N.ar         1 ACO500   0.0000
     4 C4A         23.8890    26.7960    10.2510 C.ar         1 ACO500   0.0000
     5 C5A         24.7930    27.1590     9.1500 C.ar         1 ACO500   0.0000
     6 C6A         24.7170    28.5710     8.6860 C.ar         1 ACO500   0.0000
     7 N6A         25.5030    29.0170     7.6770 N.pl3        1 ACO500   0.0000
     8 N7A         25.4980    26.0520     8.8380 N.2          1 ACO500   0.0000
     9 C8A         25.0830    25.0630     9.6550 C.2          1 ACO500   0.0000
    10 N9A         24.1270    25.5100    10.5040 N.pl3        1 ACO500   0.0000
    11 C1B         23.3960    24.6980    11.5290 C.3          1 ACO500   0.0000
    12 C2B         22.3100    23.8550    10.8460 C.3          1 ACO500   0.0000
    13 O2B         21.0440    24.4910    10.5560 O.3          1 ACO500   0.0000
    14 C3B         22.1180    22.7010    11.8040 C.3          1 ACO500   0.0000
    15 O3B         21.2250    23.1400    12.8430 O.3          1 ACO500   0.0000
    16 P3B         19.7870    22.4450    13.1600 P.3          1 ACO500   0.0000
    17 O7A         20.1200    21.0060    13.4620 O.co2        1 ACO500   0.0000
    18 O8A         19.3220    23.2740    14.3260 O.co2        1 ACO500  -1.0000
    19 O9A         18.9580    22.5390    11.9110 O.co2        1 ACO500  -1.0000
    20 C4B         23.5230    22.5020    12.3520 C.3          1 ACO500   0.0000
    21 O4B         24.2480    23.7160    12.1240 O.3          1 ACO500   0.0000
    22 C5B         24.2550    21.3760    11.6490 C.3          1 ACO500   0.0000
    23 O5B         24.0120    21.4420    10.2450 O.3          1 ACO500   0.0000
    24 P1A         24.7060    20.4380     9.2210 P.3          1 ACO500   0.0000
    25 O1A         24.8960    19.1400     9.9650 O.co2        1 ACO500   0.0000
    26 O2A         23.9480    20.4520     7.9340 O.co2        1 ACO500  -1.0000
    27 O3A         26.1740    21.1170     9.0820 O.3          1 ACO500   0.0000
    28 P2A         26.9900    21.3840     7.7190 P.3          1 ACO500   0.0000
    29 O4A         27.1570    20.1140     6.9480 O.co2        1 ACO500   0.0000
    30 O5A         26.3810    22.5740     7.0090 O.co2        1 ACO500  -1.0000
    31 O6A         28.4370    21.7810     8.2870 O.3          1 ACO500   0.0000
    32 CBP         30.1950    23.0310     9.3280 C.3          1 ACO500   0.0000
    33 CCP         28.7290    22.6000     9.4080 C.3          1 ACO500   0.0000
    34 CDP         31.1110    21.7920     9.3120 C.3          1 ACO500   0.0000
    35 CEP         30.5880    23.8790    10.5570 C.3          1 ACO500   0.0000
    36 CAP         30.2770    23.8840     8.0350 C.3          1 ACO500   0.0000
    37 OAP         29.5790    25.1360     8.1950 O.3          1 ACO500   0.0000
    38 C9P         31.6660    24.2110     7.5530 C.2          1 ACO500   0.0000
    39 O9P         32.3340    23.3590     6.9750 O.2          1 ACO500   0.0000
    40 N8P         32.0610    25.4710     7.7750 N.am         1 ACO500   0.0000
    41 C7P         33.4160    25.9780     7.5090 C.3          1 ACO500   0.0000
    42 C6P         34.5100    25.4140     8.4340 C.3          1 ACO500   0.0000
    43 C5P         34.2130    25.7810     9.8750 C.2          1 ACO500   0.0000
    44 O5P         33.8530    26.9210    10.1850 O.2          1 ACO500   0.0000
    45 N4P         34.3460    24.7770    10.7400 N.am         1 ACO500   0.0000
    46 C3P         34.4400    24.9850    12.1600 C.3          1 ACO500   0.0000
    47 C2P         35.8600    25.4080    12.5210 C.3          1 ACO500   0.0000
    48 S1P         36.0460    25.4760    14.2770 S.3          1 ACO500   0.0000
    49 C           36.7770    23.9780    14.2890 C.2          1 ACO500   0.0000
    50 O           37.2530    23.5630    13.2380 O.2          1 ACO500   0.0000
    51 CH3         36.8190    23.2220    15.5910 C.3          1 ACO500   0.0000
    52 H2A         22.3973    29.6505    10.7520 H            1 ACO500   0.0000
    53 H6A1        26.1415    28.3926     7.2272 H            1 ACO500   0.0000
    54 H6A2        25.4447    29.9707     7.3819 H            1 ACO500   0.0000
    55 H8A         25.4334    24.1266     9.6366 H            1 ACO500   0.0000
    56 H1B         22.9960    25.2897    12.2290 H            1 ACO500   0.0000
    57 H2B         22.6835    23.4947     9.9912 H            1 ACO500   0.0000
    58 H7          20.3134    23.8088    10.5870 H            1 ACO500   0.0000
    59 H3B         21.7783    21.8828    11.3402 H            1 ACO500   0.0000
    60 H4B         23.4789    22.3147    13.3333 H            1 ACO500   0.0000
    61 H5B1        23.9299    20.4983    12.0010 H            1 ACO500   0.0000
    62 H5B2        25.2366    21.4608    11.8201 H            1 ACO500   0.0000
    63 HCP1        28.5747    22.0848    10.2511 H            1 ACO500   0.0000
    64 HCP2        28.1393    23.4075     9.3981 H            1 ACO500   0.0000
    65 HDP1        32.0659    22.0841     9.2596 H            1 ACO500   0.0000
    66 HDP2        30.9698    21.2623    10.1483 H            1 ACO500   0.0000
    67 HDP3        30.8917    21.2255     8.5176 H            1 ACO500   0.0000
    68 HEP1        31.5481    24.1485    10.4828 H            1 ACO500   0.0000
    69 HEP2        30.0141    24.6971    10.5948 H            1 ACO500   0.0000
    70 HEP3        30.4563    23.3406    11.3894 H            1 ACO500   0.0000
    71 HAP         29.8179    23.3738     7.3077 H            1 ACO500   0.0000
    72 H21         28.6251    25.0237     7.9168 H            1 ACO500   0.0000
    73 H8P         31.3889    26.1111     8.1471 H            1 ACO500   0.0000
    74 H7P1        33.4022    26.9724     7.6140 H            1 ACO500   0.0000
    75 H7P2        33.6555    25.7456     6.5663 H            1 ACO500   0.0000
    76 H6P1        35.3955    25.7968     8.1708 H            1 ACO500   0.0000
    77 H6P2        34.5376    24.4183     8.3451 H            1 ACO500   0.0000
    78 H4P         34.3819    23.8416    10.3882 H            1 ACO500   0.0000
    79 H3P1        34.2143    24.1354    12.6367 H            1 ACO500   0.0000
    80 H3P2        33.7990    25.7017    12.4347 H            1 ACO500   0.0000
    81 H2P1        36.0445    26.3113    12.1337 H            1 ACO500   0.0000
    82 H2P2        36.5080    24.7455    12.1452 H            1 ACO500   0.0000
    83 HH31        37.2826    22.3467    15.4534 H            1 ACO500   0.0000
    84 HH32        37.3162    23.7591    16.2724 H            1 ACO500   0.0000
    85 HH33        35.8861    23.0583    15.9116 H            1 ACO500   0.0000
@<TRIPOS>BOND
     1    1    2      ar
     2    1    6      ar
     3    2    3      ar
     4    3    4      ar
     5    4    5      ar
     6    4   10       1
     7    5    6      ar
     8    5    8       1
     9    6    7       1
    10    8    9       2
    11    9   10       1
    12   10   11       1
    13   11   12       1
    14   11   21       1
    15   12   13       1
    16   12   14       1
    17   14   15       1
    18   14   20       1
    19   15   16       1
    20   16   17      ar
    21   16   18      ar
    22   16   19      ar
    23   20   21       1
    24   20   22       1
    25   22   23       1
    26   23   24       1
    27   24   25      ar
    28   24   26      ar
    29   24   27       1
    30   27   28       1
    31   28   29      ar
    32   28   30      ar
    33   28   31       1
    34   31   33       1
    35   32   33       1
    36   32   34       1
    37   32   35       1
    38   32   36       1
    39   36   37       1
    40   36   38       1
    41   38   39       2
    42   38   40      am
    43   40   41       1
    44   41   42       1
    45   42   43       1
    46   43   44       2
    47   43   45      am
    48   45   46       1
    49   46   47       1
    50   47   48       1
    51   48   49       1
    52   49   50       2
    53   49   51       1
    54    2   52       1
    55    7   53       1
    56    7   54       1
    57    9   55       1
    58   11   56       1
    59   12   57       1
    60   13   58       1
    61   14   59       1
    62   51   85       1
    63   51   84       1
    64   20   60       1
    65   22   61       1
    66   22   62       1
    67   51   83       1
    68   47   82       1
    69   33   63       1
    70   33   64       1
    71   34   65       1
    72   34   66       1
    73   34   67       1
    74   35   68       1
    75   35   69       1
    76   35   70       1
    77   36   71       1
    78   37   72       1
    79   40   73       1
    80   41   74       1
    81   41   75       1
    82   42   76       1
    83   42   77       1
    84   45   78       1
    85   46   79       1
    86   46   80       1
    87   47   81       1
@<TRIPOS>SUBSTRUCTURE
     1 ACO500      1 GROUP             4 A     ACO     0 **** ACO A 500
