@<TRIPOS>MOLECULE
4o4d_ATP_1_ligand
   43    45     1     0     0
SMALL
NO_CHARGES


@<TRIPOS>ATOM
     1 PG          30.6980    -8.3490    19.7080 P.3          1 ATP404   0.0000
     2 O1G         29.7490    -7.3760    19.0510 O.co2        1 ATP404   0.0000
     3 O2G         31.3980    -9.2480    18.7130 O.co2        1 ATP404  -1.0000
     4 O3G         30.0990    -9.0940    20.8930 O.co2        1 ATP404  -1.0000
     5 PB          33.1230    -6.7670    19.8980 P.3          1 ATP404   0.0000
     6 O1B         34.2100    -6.7770    20.9640 O.co2        1 ATP404   0.0000
     7 O2B         33.5550    -7.2900    18.5360 O.co2        1 ATP404  -1.0000
     8 O3B         31.8040    -7.4410    20.4840 O.3          1 ATP404   0.0000
     9 PA          32.2400    -4.4370    18.4620 P.3          1 ATP404   0.0000
    10 O1A         33.4240    -4.0400    17.5990 O.co2        1 ATP404   0.0000
    11 O2A         31.0540    -5.0880    17.7980 O.co2        1 ATP404  -1.0000
    12 O3A         32.7180    -5.2070    19.7880 O.3          1 ATP404   0.0000
    13 O5'         31.7060    -3.1610    19.2610 O.3          1 ATP404   0.0000
    14 C5'         30.7080    -3.3100    20.2860 C.3          1 ATP404   0.0000
    15 C4'         30.1460    -1.9390    20.6580 C.3          1 ATP404   0.0000
    16 O4'         31.2100    -1.0160    20.9780 O.3          1 ATP404   0.0000
    17 C3'         29.4090    -1.3110    19.5070 C.3          1 ATP404   0.0000
    18 O3'         28.0300    -1.6820    19.5040 O.3          1 ATP404   0.0000
    19 C2'         29.5840     0.1420    19.7760 C.3          1 ATP404   0.0000
    20 O2'         28.6060     0.5400    20.7110 O.3          1 ATP404   0.0000
    21 C1'         30.9350     0.2840    20.4250 C.3          1 ATP404   0.0000
    22 N9          32.0180     0.6190    19.4510 N.pl3        1 ATP404   0.0000
    23 C8          32.6380    -0.2670    18.6760 C.2          1 ATP404   0.0000
    24 N7          33.5630     0.3270    17.8920 N.2          1 ATP404   0.0000
    25 C5          33.5290     1.6370    18.2160 C.ar         1 ATP404   0.0000
    26 C6          34.2870     2.8070    17.8100 C.ar         1 ATP404   0.0000
    27 N6          35.2320     2.7120    16.8670 N.pl3        1 ATP404   0.0000
    28 N1          33.9620     3.9700    18.3710 N.ar         1 ATP404   0.0000
    29 C2          32.9730     4.0830    19.2900 C.ar         1 ATP404   0.0000
    30 N3          32.2430     3.0590    19.7400 N.ar         1 ATP404   0.0000
    31 C4          32.5120     1.8220    19.2390 C.ar         1 ATP404   0.0000
    32 H5'1        31.1209    -3.7307    21.0938 H            1 ATP404   0.0000
    33 H5'2        29.9685    -3.8922    19.9482 H            1 ATP404   0.0000
    34 H4'         29.5316    -2.0288    21.4419 H            1 ATP404   0.0000
    35 H3'         29.8394    -1.5598    18.6393 H            1 ATP404   0.0000
    36 H5          27.8143    -2.1564    18.6505 H            1 ATP404   0.0000
    37 H2'         29.5248     0.6790    18.9345 H            1 ATP404   0.0000
    38 H7          27.7905    -0.0285    20.6028 H            1 ATP404   0.0000
    39 H1'         30.8994     0.9693    21.1524 H            1 ATP404   0.0000
    40 H9          32.4437    -1.2479    18.6743 H            1 ATP404   0.0000
    41 H10         35.7490     3.5232    16.5938 H            1 ATP404   0.0000
    42 H11         35.4210     1.8298    16.4357 H            1 ATP404   0.0000
    43 H12         32.7766     4.9929    19.6554 H            1 ATP404   0.0000
@<TRIPOS>BOND
     1    1    2      ar
     2    1    3      ar
     3    1    4      ar
     4    1    8       1
     5    5    6      ar
     6    5    7      ar
     7    5    8       1
     8    5   12       1
     9    9   10      ar
    10    9   11      ar
    11    9   12       1
    12    9   13       1
    13   13   14       1
    14   14   15       1
    15   15   16       1
    16   15   17       1
    17   16   21       1
    18   17   18       1
    19   17   19       1
    20   19   20       1
    21   19   21       1
    22   21   22       1
    23   22   23       1
    24   22   31       1
    25   23   24       2
    26   24   25       1
    27   25   26      ar
    28   25   31      ar
    29   26   27       1
    30   26   28      ar
    31   28   29      ar
    32   29   30      ar
    33   30   31      ar
    34   29   43       1
    35   27   42       1
    36   27   41       1
    37   23   40       1
    38   14   32       1
    39   14   33       1
    40   15   34       1
    41   17   35       1
    42   18   36       1
    43   19   37       1
    44   20   38       1
    45   21   39       1
@<TRIPOS>SUBSTRUCTURE
     1 ATP404      1 GROUP             4 A     ATP     0 **** ATP A 404
