@<TRIPOS>MOLECULE
5a06_NDP_3_ligand
   73    77     1     0     0
SMALL
NO_CHARGES


@<TRIPOS>ATOM
     1 PA          98.7910    14.0450    40.4500 P.3          1 NDP1340   0.0000
     2 O1A         98.0210    13.8710    41.7090 O.co2        1 NDP1340   0.0000
     3 O2A         99.9070    15.0540    40.4120 O.co2        1 NDP1340  -1.0000
     4 O5B         97.7780    14.3790    39.1860 O.3          1 NDP1340   0.0000
     5 C5B         96.6410    13.5440    39.3110 C.3          1 NDP1340   0.0000
     6 C4B         95.5470    14.1340    38.3910 C.3          1 NDP1340   0.0000
     7 O4B         94.5280    13.1560    38.0660 O.3          1 NDP1340   0.0000
     8 C3B         94.8800    15.2910    39.1220 C.3          1 NDP1340   0.0000
     9 O3B         95.6300    16.4640    38.9280 O.3          1 NDP1340   0.0000
    10 C2B         93.5610    15.4080    38.3190 C.3          1 NDP1340   0.0000
    11 O2B         93.7260    16.0360    37.1700 O.3          1 NDP1340   0.0000
    12 C1B         93.2790    13.8760    37.9820 C.3          1 NDP1340   0.0000
    13 N9A         92.2670    13.2360    38.8670 N.pl3        1 NDP1340   0.0000
    14 C8A         91.0420    12.6490    38.4830 C.2          1 NDP1340   0.0000
    15 N7A         90.3380    12.1630    39.5200 N.2          1 NDP1340   0.0000
    16 C5A         91.1390    12.4470    40.6370 C.ar         1 NDP1340   0.0000
    17 C6A         90.9650    12.1950    42.0050 C.ar         1 NDP1340   0.0000
    18 N6A         89.8330    11.5550    42.4710 N.pl3        1 NDP1340   0.0000
    19 N1A         91.8980    12.5710    42.9250 N.ar         1 NDP1340   0.0000
    20 C2A         93.0060    13.2110    42.4130 C.ar         1 NDP1340   0.0000
    21 N3A         93.3160    13.5190    41.1520 N.ar         1 NDP1340   0.0000
    22 C4A         92.3440    13.1170    40.2500 C.ar         1 NDP1340   0.0000
    23 O3          99.3470    12.4920    40.2600 O.3          1 NDP1340   0.0000
    24 PN         100.5940    12.2690    39.2580 P.3          1 NDP1340   0.0000
    25 O1N        100.4620    12.9250    37.9410 O.co2        1 NDP1340   0.0000
    26 O2N        101.9140    12.2170    39.9930 O.co2        1 NDP1340  -1.0000
    27 O5D        100.4200    10.5920    38.8770 O.3          1 NDP1340   0.0000
    28 C5D         99.3230    10.3500    38.0830 C.3          1 NDP1340   0.0000
    29 C4D         99.5530     9.0080    37.3780 C.3          1 NDP1340   0.0000
    30 O4D        100.8140     9.0450    36.6820 O.3          1 NDP1340   0.0000
    31 C3D         99.6510     7.8360    38.4130 C.3          1 NDP1340   0.0000
    32 O3D         99.0740     6.6980    37.8390 O.3          1 NDP1340   0.0000
    33 C2D        101.1870     7.6530    38.5690 C.3          1 NDP1340   0.0000
    34 O2D        101.5600     6.3370    38.8780 O.3          1 NDP1340   0.0000
    35 C1D        101.6550     7.9850    37.1290 C.3          1 NDP1340   0.0000
    36 N1N        103.0270     8.5380    37.1470 N.ar         1 NDP1340   1.0000
    37 C2N        104.0130     8.0000    36.3320 C.ar         1 NDP1340   0.0000
    38 C3N        105.2860     8.5050    36.3730 C.ar         1 NDP1340   0.0000
    39 C7N        106.3030     7.9180    35.5000 C.2          1 NDP1340   0.0000
    40 O7N        107.4930     8.2060    35.5900 O.2          1 NDP1340   0.0000
    41 N7N        105.9300     7.0220    34.5090 N.am         1 NDP1340   0.0000
    42 C4N        105.6680     9.6420    37.2720 C.ar         1 NDP1340   0.0000
    43 C5N        104.5320    10.1870    38.0520 C.ar         1 NDP1340   0.0000
    44 C6N        103.3050     9.6480    37.9770 C.ar         1 NDP1340   0.0000
    45 P2B         92.4270    17.2090    36.7000 P.3          1 NDP1340   0.0000
    46 O1X         91.2240    16.3270    36.8580 O.co2        1 NDP1340   0.0000
    47 O2X         92.6530    18.2490    37.7530 O.co2        1 NDP1340  -1.0000
    48 O3X         92.8590    17.5310    35.2690 O.co2        1 NDP1340  -1.0000
    49 H5B1        96.3242    13.5342    40.2594 H            1 NDP1340   0.0000
    50 H5B2        96.8653    12.6125    39.0248 H            1 NDP1340   0.0000
    51 H4B         95.9667    14.4704    37.5480 H            1 NDP1340   0.0000
    52 H3B         94.7228    15.0928    40.0895 H            1 NDP1340   0.0000
    53 H5          96.5946    16.2275    38.8117 H            1 NDP1340   0.0000
    54 H2B         92.8263    15.8123    38.8638 H            1 NDP1340   0.0000
    55 H1B         92.9493    13.8196    37.0396 H            1 NDP1340   0.0000
    56 H8A         90.7292    12.5996    37.5345 H            1 NDP1340   0.0000
    57 H6A1        89.7234    11.3824    43.4499 H            1 NDP1340   0.0000
    58 H6A2        89.1231    11.2643    41.8295 H            1 NDP1340   0.0000
    59 H2A         93.6844    13.4882    43.0934 H            1 NDP1340   0.0000
    60 H5D1        99.2239    11.0791    37.4058 H            1 NDP1340   0.0000
    61 H5D2        98.4976    10.3033    38.6457 H            1 NDP1340   0.0000
    62 H4D         98.8113     8.8308    36.7311 H            1 NDP1340   0.0000
    63 H3D         99.2165     8.0727    39.2820 H            1 NDP1340   0.0000
    64 H16         98.6819     6.1243    38.5581 H            1 NDP1340   0.0000
    65 H2D        101.5637     8.3012    39.2308 H            1 NDP1340   0.0000
    66 H18        101.2562     5.7244    38.1483 H            1 NDP1340   0.0000
    67 H1D        101.5893     7.1874    36.5294 H            1 NDP1340   0.0000
    68 H2N        103.7945     7.2440    35.7150 H            1 NDP1340   0.0000
    69 H7N1       106.6238     6.6199    33.9115 H            1 NDP1340   0.0000
    70 H7N2       104.9673     6.7781    34.3920 H            1 NDP1340   0.0000
    71 H4N        106.5999     9.9985    37.3390 H            1 NDP1340   0.0000
    72 H5N        104.6831    10.9752    38.6485 H            1 NDP1340   0.0000
    73 H6N        102.5666    10.0428    38.5237 H            1 NDP1340   0.0000
@<TRIPOS>BOND
     1    1    2      ar
     2    1    3      ar
     3    1    4       1
     4    1   23       1
     5    4    5       1
     6    5    6       1
     7    6    7       1
     8    6    8       1
     9    7   12       1
    10    8    9       1
    11    8   10       1
    12   10   11       1
    13   10   12       1
    14   11   45       1
    15   12   13       1
    16   13   14       1
    17   13   22       1
    18   14   15       2
    19   15   16       1
    20   16   17      ar
    21   16   22      ar
    22   17   18       1
    23   17   19      ar
    24   19   20      ar
    25   20   21      ar
    26   21   22      ar
    27   23   24       1
    28   24   25      ar
    29   24   26      ar
    30   24   27       1
    31   27   28       1
    32   28   29       1
    33   29   30       1
    34   29   31       1
    35   30   35       1
    36   31   32       1
    37   31   33       1
    38   33   34       1
    39   33   35       1
    40   35   36       1
    41   36   37      ar
    42   36   44      ar
    43   37   38      ar
    44   38   39       1
    45   38   42      ar
    46   39   40       2
    47   39   41      am
    48   42   43      ar
    49   43   44      ar
    50   45   46      ar
    51   45   47      ar
    52   45   48      ar
    53   43   72       1
    54    5   49       1
    55    5   50       1
    56    6   51       1
    57    8   52       1
    58    9   53       1
    59   10   54       1
    60   12   55       1
    61   14   56       1
    62   18   57       1
    63   18   58       1
    64   20   59       1
    65   44   73       1
    66   28   60       1
    67   28   61       1
    68   29   62       1
    69   31   63       1
    70   32   64       1
    71   33   65       1
    72   34   66       1
    73   35   67       1
    74   37   68       1
    75   41   69       1
    76   41   70       1
    77   42   71       1
@<TRIPOS>SUBSTRUCTURE
     1 NDP1340     1 GROUP             4 C     NDP     0 **** NDP C1340
