@<TRIPOS>MOLECULE
4a4z_ANP_1_ligand
   44    46     1     0     0
SMALL
NO_CHARGES


@<TRIPOS>ATOM
     1 PG          66.0760    17.4290    45.0240 P.3          1 ANP2288   0.0000
     2 O1G         67.2200    17.4630    45.9760 O.co2        1 ANP2288   0.0000
     3 O2G         66.5340    18.2270    43.8450 O.co2        1 ANP2288  -1.0000
     4 O3G         66.0890    16.0240    44.5210 O.co2        1 ANP2288  -1.0000
     5 PB          64.3740    19.5650    45.4840 P.3          1 ANP2288   0.0000
     6 O1B         64.7940    20.0270    44.1230 O.co2        1 ANP2288   0.0000
     7 O2B         65.2850    20.3610    46.3700 O.co2        1 ANP2288  -1.0000
     8 N3B         64.6270    17.9270    45.6650 N.3          1 ANP2288   0.0000
     9 PA          62.2290    19.7110    47.1430 P.3          1 ANP2288   0.0000
    10 O1A         60.7230    19.6520    47.1130 O.co2        1 ANP2288   0.0000
    11 O2A         62.6010    18.3190    47.5560 O.co2        1 ANP2288  -1.0000
    12 O3A         62.8700    19.9720    45.7390 O.3          1 ANP2288   0.0000
    13 O5'         62.6910    20.7980    48.1990 O.3          1 ANP2288   0.0000
    14 C5'         61.9510    21.9770    48.3130 C.3          1 ANP2288   0.0000
    15 C4'         61.9380    22.4340    49.7610 C.3          1 ANP2288   0.0000
    16 O4'         61.9220    23.8330    49.8220 O.3          1 ANP2288   0.0000
    17 C3'         60.7380    21.9440    50.4860 C.3          1 ANP2288   0.0000
    18 O3'         61.0030    21.7710    51.8220 O.3          1 ANP2288   0.0000
    19 C2'         59.7580    23.0270    50.2800 C.3          1 ANP2288   0.0000
    20 O2'         58.9820    23.1910    51.4080 O.3          1 ANP2288   0.0000
    21 C1'         60.5880    24.2230    50.0300 C.3          1 ANP2288   0.0000
    22 N9          60.1190    24.9720    48.8710 N.pl3        1 ANP2288   0.0000
    23 C8          59.7090    24.4440    47.6530 C.2          1 ANP2288   0.0000
    24 N7          59.3540    25.4880    46.8450 N.2          1 ANP2288   0.0000
    25 C5          59.5410    26.6930    47.5480 C.ar         1 ANP2288   0.0000
    26 C6          59.3460    28.0420    47.2260 C.ar         1 ANP2288   0.0000
    27 N6          58.8490    28.4250    45.9220 N.pl3        1 ANP2288   0.0000
    28 N1          59.6320    28.9830    48.1600 N.ar         1 ANP2288   0.0000
    29 C2          60.0960    28.6370    49.3780 C.ar         1 ANP2288   0.0000
    30 N3          60.2940    27.3370    49.7170 N.ar         1 ANP2288   0.0000
    31 C4          60.0290    26.3630    48.8370 C.ar         1 ANP2288   0.0000
    32 H3B         64.6161    17.7072    46.6405 H            1 ANP2288   0.0000
    33 H5'1        61.0131    21.8118    48.0080 H            1 ANP2288   0.0000
    34 H5'2        62.3664    22.6867    47.7440 H            1 ANP2288   0.0000
    35 H4'         62.7595    22.0950    50.2195 H            1 ANP2288   0.0000
    36 H3'         60.4080    21.0913    50.0811 H            1 ANP2288   0.0000
    37 H6          60.3966    22.3560    52.3606 H            1 ANP2288   0.0000
    38 H2'         59.1823    22.8300    49.4864 H            1 ANP2288   0.0000
    39 H8          58.0213    23.0374    51.1769 H            1 ANP2288   0.0000
    40 H1'         60.5479    24.8162    50.8341 H            1 ANP2288   0.0000
    41 H10         59.6790    23.4742    47.4108 H            1 ANP2288   0.0000
    42 H11         58.7134    29.3912    45.7026 H            1 ANP2288   0.0000
    43 H12         58.6411    27.7235    45.2403 H            1 ANP2288   0.0000
    44 H13         60.2986    29.3531    50.0459 H            1 ANP2288   0.0000
@<TRIPOS>BOND
     1    1    2      ar
     2    1    3      ar
     3    1    4      ar
     4    1    8       1
     5    5    6      ar
     6    5    7      ar
     7    5    8       1
     8    5   12       1
     9    9   10      ar
    10    9   11      ar
    11    9   12       1
    12    9   13       1
    13   13   14       1
    14   14   15       1
    15   15   16       1
    16   15   17       1
    17   16   21       1
    18   17   18       1
    19   17   19       1
    20   19   20       1
    21   19   21       1
    22   21   22       1
    23   22   23       1
    24   22   31       1
    25   23   24       2
    26   24   25       1
    27   25   26      ar
    28   25   31      ar
    29   26   27       1
    30   26   28      ar
    31   28   29      ar
    32   29   30      ar
    33   30   31      ar
    34   29   44       1
    35   27   43       1
    36   27   42       1
    37    8   32       1
    38   23   41       1
    39   14   33       1
    40   14   34       1
    41   15   35       1
    42   17   36       1
    43   18   37       1
    44   19   38       1
    45   20   39       1
    46   21   40       1
@<TRIPOS>SUBSTRUCTURE
     1 ANP2288     1 GROUP             4 A     ANP     0 **** ANP A2288
