@<TRIPOS>MOLECULE
3uel_A1R_1_ligand
   58    61     1     0     0
SMALL
NO_CHARGES


@<TRIPOS>ATOM
     1 N1          40.0430    41.8790     4.5040 N.ar         1 A1R1001   0.0000
     2 C2          40.6510    43.0690     4.6760 C.ar         1 A1R1001   0.0000
     3 N3          40.9940    43.5800     5.8770 N.ar         1 A1R1001   0.0000
     4 C4          40.7580    42.8990     7.0230 C.ar         1 A1R1001   0.0000
     5 C5          40.0870    41.5910     6.9290 C.ar         1 A1R1001   0.0000
     6 C6          39.7390    41.1140     5.5550 C.ar         1 A1R1001   0.0000
     7 N6          39.1380    39.9390     5.3120 N.pl3        1 A1R1001   0.0000
     8 N7          39.9650    41.1510     8.2060 N.2          1 A1R1001   0.0000
     9 C8          40.5040    42.0940     9.0260 C.2          1 A1R1001   0.0000
    10 N9          40.9910    43.1440     8.3190 N.pl3        1 A1R1001   0.0000
    11 C1'         41.6270    44.4040     8.8300 C.3          1 A1R1001   0.0000
    12 C2'         41.0350    44.8260    10.1700 C.3          1 A1R1001   0.0000
    13 O2'         41.1070    46.2490    10.2930 O.3          1 A1R1001   0.0000
    14 C3'         41.9270    44.1560    11.1770 C.3          1 A1R1001   0.0000
    15 O3'         41.8640    44.7540    12.4690 O.3          1 A1R1001   0.0000
    16 O4'         43.0120    44.2540     9.0580 O.3          1 A1R1001   0.0000
    17 C4'         43.2570    44.3260    10.4630 C.3          1 A1R1001   0.0000
    18 C5'         44.2840    43.2820    10.8330 C.3          1 A1R1001   0.0000
    19 O5'         43.6820    42.0250    11.1490 O.3          1 A1R1001   0.0000
    20 PA          44.5220    41.1730    12.2130 P.3          1 A1R1001   0.0000
    21 O1A         44.4290    39.6620    12.0190 O.co2        1 A1R1001   0.0000
    22 O2A         44.1920    41.7960    13.5550 O.co2        1 A1R1001  -1.0000
    23 O3A         45.9570    41.6080    11.5800 O.3          1 A1R1001   0.0000
    24 PB          47.2940    41.8510    12.4170 P.3          1 A1R1001   0.0000
    25 O1B         47.0850    43.2140    13.0030 O.co2        1 A1R1001   0.0000
    26 O2B         48.5400    41.5630    11.5880 O.co2        1 A1R1001  -1.0000
    27 O5N         47.1700    40.6810    13.5410 O.3          1 A1R1001   0.0000
    28 C5N         48.1510    39.6310    13.4880 C.3          1 A1R1001   0.0000
    29 N4N         46.5430    38.0570    14.5570 N.4          1 A1R1001   1.0000
    30 C1N         46.1900    36.7830    13.9720 C.3          1 A1R1001   0.0000
    31 O2N         47.7650    34.9690    14.0350 O.3          1 A1R1001   0.0000
    32 C2N         47.4970    36.2230    13.4260 C.3          1 A1R1001   0.0000
    33 O3N         49.3990    36.5260    14.7700 O.3          1 A1R1001   0.0000
    34 C3N         48.5940    37.1860    13.8100 C.3          1 A1R1001   0.0000
    35 C4N         47.9320    38.4280    14.4080 C.3          1 A1R1001   0.0000
    36 H1          40.8618    43.6085     3.8608 H            1 A1R1001   0.0000
    37 H2          38.8934    39.3360     6.0713 H            1 A1R1001   0.0000
    38 H3          38.9347    39.6664     4.3716 H            1 A1R1001   0.0000
    39 H4          40.5368    42.0219    10.0229 H            1 A1R1001   0.0000
    40 H1'         41.4829    45.1360     8.1641 H            1 A1R1001   0.0000
    41 H2'         40.0916    44.5069    10.2602 H            1 A1R1001   0.0000
    42 H7          40.1851    46.6214    10.4002 H            1 A1R1001   0.0000
    43 H3'         41.6976    43.1848    11.2408 H            1 A1R1001   0.0000
    44 H9          42.4760    44.2668    13.0920 H            1 A1R1001   0.0000
    45 H4'         43.6251    45.2303    10.6795 H            1 A1R1001   0.0000
    46 H5'1        44.7978    43.6027    11.6287 H            1 A1R1001   0.0000
    47 H5'2        44.9081    43.1560    10.0619 H            1 A1R1001   0.0000
    48 H5N1        49.0360    40.0330    13.7227 H            1 A1R1001   0.0000
    49 H5N2        48.1782    39.2908    12.5480 H            1 A1R1001   0.0000
    50 H4N1        46.3341    38.0192    15.5342 H            1 A1R1001   0.0000
    51 H1N1        45.5257    36.9069    13.2348 H            1 A1R1001   0.0000
    52 H1N2        45.8083    36.1717    14.6653 H            1 A1R1001   0.0000
    53 H2N         47.8147    34.2604    13.3311 H            1 A1R1001   0.0000
    54 H19         47.4482    36.1262    12.4319 H            1 A1R1001   0.0000
    55 H3N         48.8372    35.8834    15.2910 H            1 A1R1001   0.0000
    56 H21         49.1384    37.4325    13.0082 H            1 A1R1001   0.0000
    57 H4N         48.3264    38.6177    15.3072 H            1 A1R1001   0.0000
    58 H4N2        45.9839    38.7639    14.1237 H            1 A1R1001   0.0000
@<TRIPOS>BOND
     1    1    2      ar
     2    1    6      ar
     3    2    3      ar
     4    3    4      ar
     5    4    5      ar
     6    4   10       1
     7    5    6      ar
     8    5    8       1
     9    6    7       1
    10    8    9       2
    11    9   10       1
    12   10   11       1
    13   11   12       1
    14   11   16       1
    15   12   13       1
    16   12   14       1
    17   14   15       1
    18   14   17       1
    19   16   17       1
    20   17   18       1
    21   18   19       1
    22   19   20       1
    23   20   21      ar
    24   20   22      ar
    25   20   23       1
    26   23   24       1
    27   24   25      ar
    28   24   26      ar
    29   24   27       1
    30   27   28       1
    31   28   35       1
    32   29   30       1
    33   29   35       1
    34   30   32       1
    35   31   32       1
    36   32   34       1
    37   33   34       1
    38   34   35       1
    39    2   36       1
    40    7   37       1
    41    7   38       1
    42    9   39       1
    43   11   40       1
    44   12   41       1
    45   13   42       1
    46   14   43       1
    47   15   44       1
    48   17   45       1
    49   18   46       1
    50   18   47       1
    51   35   57       1
    52   34   56       1
    53   28   48       1
    54   28   49       1
    55   29   50       1
    56   30   51       1
    57   30   52       1
    58   31   53       1
    59   32   54       1
    60   33   55       1
    61   29   58       1
@<TRIPOS>SUBSTRUCTURE
     1 A1R1001     1 GROUP             4 A     A1R     0 **** A1R A1001
