@<TRIPOS>MOLECULE
4obw_SAM_1_ligand
   50    52     1     0     0
SMALL
NO_CHARGES


@<TRIPOS>ATOM
     1 N          -37.0440   -42.6950    30.4900 N.4          1 SAM602   1.0000
     2 CA         -35.8890   -42.7990    31.3690 C.3          1 SAM602   0.0000
     3 C          -36.1750   -42.1650    32.7070 C.2          1 SAM602   0.0000
     4 O          -37.0420   -41.2630    32.7840 O.co2        1 SAM602   0.0000
     5 OXT        -35.5320   -42.5700    33.7030 O.co2        1 SAM602  -1.0000
     6 CB         -34.6490   -42.1860    30.7110 C.3          1 SAM602   0.0000
     7 CG         -34.8030   -40.7160    30.3060 C.3          1 SAM602   0.0000
     8 SD         -34.1600   -40.4340    28.7920 S.3          1 SAM602   1.0000
     9 CE         -32.5990   -41.0010    28.7270 C.3          1 SAM602   0.0000
    10 C5'        -34.1180   -38.7990    28.4530 C.3          1 SAM602   0.0000
    11 C4'        -35.4760   -38.2740    27.9920 C.3          1 SAM602   0.0000
    12 O4'        -35.5970   -36.8790    28.2910 O.3          1 SAM602   0.0000
    13 C3'        -35.6890   -38.4140    26.4930 C.3          1 SAM602   0.0000
    14 O3'        -36.8870   -39.1610    26.2880 O.3          1 SAM602   0.0000
    15 C2'        -35.8530   -36.9990    25.9650 C.3          1 SAM602   0.0000
    16 O2'        -36.8770   -36.9120    24.9690 O.3          1 SAM602   0.0000
    17 C1'        -36.2370   -36.2040    27.2020 C.3          1 SAM602   0.0000
    18 N9         -35.8390   -34.7710    27.1270 N.pl3        1 SAM602   0.0000
    19 C8         -34.6420   -34.2770    26.7500 C.2          1 SAM602   0.0000
    20 N7         -34.6290   -32.9200    26.8030 N.2          1 SAM602   0.0000
    21 C5         -35.8410   -32.5190    27.2260 C.ar         1 SAM602   0.0000
    22 C6         -36.5080   -31.2210    27.5050 C.ar         1 SAM602   0.0000
    23 N6         -35.8580   -30.0450    27.3380 N.pl3        1 SAM602   0.0000
    24 N1         -37.7910   -31.2490    27.9350 N.ar         1 SAM602   0.0000
    25 C2         -38.4600   -32.4080    28.1090 C.ar         1 SAM602   0.0000
    26 N3         -37.9170   -33.6190    27.8740 N.ar         1 SAM602   0.0000
    27 C4         -36.6350   -33.7420    27.4390 C.ar         1 SAM602   0.0000
    28 H1         -36.7934   -42.1808    29.6698 H            1 SAM602   0.0000
    29 H2         -37.3479   -43.6113    30.2291 H            1 SAM602   0.0000
    30 HA         -35.7066   -43.7702    31.5224 H            1 SAM602   0.0000
    31 HB1        -34.4379   -42.7155    29.8894 H            1 SAM602   0.0000
    32 HB2        -33.8878   -42.2538    31.3560 H            1 SAM602   0.0000
    33 HG1        -34.3281   -40.1426    30.9736 H            1 SAM602   0.0000
    34 HG2        -35.7749   -40.4809    30.2962 H            1 SAM602   0.0000
    35 HE1        -32.2195   -40.8292    27.8179 H            1 SAM602   0.0000
    36 HE2        -32.0447   -40.5309    29.4139 H            1 SAM602   0.0000
    37 HE3        -32.5935   -41.9841    28.9101 H            1 SAM602   0.0000
    38 H5'1       -33.4468   -38.6366    27.7297 H            1 SAM602   0.0000
    39 H5'2       -33.8445   -38.3053    29.2785 H            1 SAM602   0.0000
    40 H4'        -36.1977   -38.7734    28.4713 H            1 SAM602   0.0000
    41 H3'        -34.9082   -38.8670    26.0626 H            1 SAM602   0.0000
    42 H15        -37.6570   -38.6766    26.7032 H            1 SAM602   0.0000
    43 H2'        -34.9850   -36.6658    25.5969 H            1 SAM602   0.0000
    44 H17        -37.7499   -37.2010    25.3622 H            1 SAM602   0.0000
    45 H1'        -37.2278   -36.2580    27.3260 H            1 SAM602   0.0000
    46 H19        -33.8638   -34.8380    26.4676 H            1 SAM602   0.0000
    47 H20        -36.3263   -29.1829    27.5318 H            1 SAM602   0.0000
    48 H21        -34.9096   -30.0385    27.0209 H            1 SAM602   0.0000
    49 H22        -39.4067   -32.3662    28.4285 H            1 SAM602   0.0000
    50 H23        -37.7844   -42.2215    30.9671 H            1 SAM602   0.0000
@<TRIPOS>BOND
     1    1    2       1
     2    2    3       1
     3    2    6       1
     4    3    4      ar
     5    3    5      ar
     6    6    7       1
     7    7    8       1
     8    8    9       1
     9    8   10       1
    10   10   11       1
    11   11   12       1
    12   11   13       1
    13   12   17       1
    14   13   14       1
    15   13   15       1
    16   15   16       1
    17   15   17       1
    18   17   18       1
    19   18   19       1
    20   18   27       1
    21   19   20       2
    22   20   21       1
    23   21   22      ar
    24   21   27      ar
    25   22   23       1
    26   22   24      ar
    27   24   25      ar
    28   25   26      ar
    29   26   27      ar
    30    1   28       1
    31    1   29       1
    32    2   30       1
    33    1   50       1
    34    6   31       1
    35    6   32       1
    36    7   33       1
    37    7   34       1
    38    9   35       1
    39    9   36       1
    40    9   37       1
    41   10   38       1
    42   10   39       1
    43   11   40       1
    44   13   41       1
    45   14   42       1
    46   15   43       1
    47   16   44       1
    48   17   45       1
    49   19   46       1
    50   23   47       1
    51   23   48       1
    52   25   49       1
@<TRIPOS>SUBSTRUCTURE
     1 SAM602      1 GROUP             4 A     SAM     0 **** SAM A 602
