@<TRIPOS>MOLECULE
1up6_NAD_1_ligand
   70    74     1     0     0
SMALL
NO_CHARGES


@<TRIPOS>ATOM
     1 PA         153.5580    69.2860    94.4690 P.3          1 NAD1416   0.0000
     2 O1A        152.2670    70.0140    94.3720 O.co2        1 NAD1416   0.0000
     3 O2A        154.6830    70.3190    94.2950 O.co2        1 NAD1416  -1.0000
     4 O5B        153.5770    68.0960    93.3380 O.3          1 NAD1416   0.0000
     5 C5B        154.5620    67.1200    93.0690 C.3          1 NAD1416   0.0000
     6 C4B        155.0460    67.1310    91.6070 C.3          1 NAD1416   0.0000
     7 O4B        154.1200    66.4890    90.7460 O.3          1 NAD1416   0.0000
     8 C3B        155.2940    68.5120    90.9860 C.3          1 NAD1416   0.0000
     9 O3B        156.6760    68.7550    90.8170 O.3          1 NAD1416   0.0000
    10 C2B        154.5710    68.4950    89.6360 C.3          1 NAD1416   0.0000
    11 O2B        155.3540    68.9660    88.5610 O.3          1 NAD1416   0.0000
    12 C1B        154.2220    67.0300    89.4410 C.3          1 NAD1416   0.0000
    13 N9A        152.9600    66.7890    88.7320 N.pl3        1 NAD1416   0.0000
    14 C8A        151.7580    67.4390    88.8720 C.2          1 NAD1416   0.0000
    15 N7A        150.8600    66.8590    88.0300 N.2          1 NAD1416   0.0000
    16 C5A        151.4700    65.8490    87.3640 C.ar         1 NAD1416   0.0000
    17 C6A        151.0240    64.9460    86.4070 C.ar         1 NAD1416   0.0000
    18 N6A        149.7630    65.0020    85.9840 N.pl3        1 NAD1416   0.0000
    19 N1A        151.8960    64.0020    85.9010 N.ar         1 NAD1416   0.0000
    20 C2A        153.2040    63.9740    86.3460 C.ar         1 NAD1416   0.0000
    21 N3A        153.6610    64.8750    87.2860 N.ar         1 NAD1416   0.0000
    22 C4A        152.8010    65.7980    87.7900 C.ar         1 NAD1416   0.0000
    23 O3         153.5810    68.7870    96.0070 O.3          1 NAD1416   0.0000
    24 PN         153.5970    67.3250    96.6790 P.3          1 NAD1416   0.0000
    25 O1N        153.1580    67.5430    98.0850 O.co2        1 NAD1416   0.0000
    26 O2N        154.9280    66.7170    96.4630 O.co2        1 NAD1416  -1.0000
    27 O5D        152.4600    66.4640    95.9300 O.3          1 NAD1416   0.0000
    28 C5D        152.5840    65.0570    95.8980 C.3          1 NAD1416   0.0000
    29 C4D        151.2190    64.3970    95.7480 C.3          1 NAD1416   0.0000
    30 O4D        151.1890    63.3140    96.6560 O.3          1 NAD1416   0.0000
    31 C3D        150.0680    65.3210    96.1420 C.3          1 NAD1416   0.0000
    32 O3D        148.8600    64.8540    95.5880 O.3          1 NAD1416   0.0000
    33 C2D        150.0490    65.1470    97.6400 C.3          1 NAD1416   0.0000
    34 O2D        148.8450    65.5550    98.2480 O.3          1 NAD1416   0.0000
    35 C1D        150.2750    63.6440    97.6970 C.3          1 NAD1416   0.0000
    36 N1N        150.7720    63.1920    98.9940 N.ar         1 NAD1416   1.0000
    37 C2N        150.0400    62.2370    99.6110 C.ar         1 NAD1416   0.0000
    38 C3N        150.4540    61.7300   100.8360 C.ar         1 NAD1416   0.0000
    39 C7N        149.6240    60.6820   101.4930 C.2          1 NAD1416   0.0000
    40 O7N        149.8910    60.4550   102.8690 O.2          1 NAD1416   0.0000
    41 N7N        148.6840    60.0460   100.7710 N.am         1 NAD1416   0.0000
    42 C4N        151.6130    62.2190   101.4410 C.ar         1 NAD1416   0.0000
    43 C5N        152.3520    63.2080   100.8010 C.ar         1 NAD1416   0.0000
    44 C6N        151.9160    63.6810    99.5640 C.ar         1 NAD1416   0.0000
    45 H5B1       154.1789    66.2184    93.2699 H            1 NAD1416   0.0000
    46 H5B2       155.3473    67.2888    93.6647 H            1 NAD1416   0.0000
    47 H4B        155.9046    66.6200    91.5664 H            1 NAD1416   0.0000
    48 H3B        154.8974    69.2196    91.5708 H            1 NAD1416   0.0000
    49 H5         157.1504    67.8883    90.6628 H            1 NAD1416   0.0000
    50 H2B        153.7309    69.0337    89.6994 H            1 NAD1416   0.0000
    51 H7         155.8513    68.2015    88.1508 H            1 NAD1416   0.0000
    52 H1B        154.9669    66.5755    88.9526 H            1 NAD1416   0.0000
    53 H8A        151.5745    68.2061    89.4867 H            1 NAD1416   0.0000
    54 H6A1       149.4374    64.3542    85.2953 H            1 NAD1416   0.0000
    55 H6A2       149.1414    65.6919    86.3549 H            1 NAD1416   0.0000
    56 H2A        153.8318    63.2872    85.9796 H            1 NAD1416   0.0000
    57 H5D1       153.0070    64.7457    96.7490 H            1 NAD1416   0.0000
    58 H5D2       153.1611    64.7962    95.1241 H            1 NAD1416   0.0000
    59 H4D        151.0943    64.0679    94.8120 H            1 NAD1416   0.0000
    60 H3D        150.2507    66.2694    95.8828 H            1 NAD1416   0.0000
    61 H17        149.0492    64.3781    94.7291 H            1 NAD1416   0.0000
    62 H2D        150.8230    65.6275    98.0523 H            1 NAD1416   0.0000
    63 H19        149.0340    66.2847    98.9051 H            1 NAD1416   0.0000
    64 H1D        149.4057    63.1853    97.5130 H            1 NAD1416   0.0000
    65 H2N        149.2015    61.8962    99.1858 H            1 NAD1416   0.0000
    66 H7N1       148.1186    59.3400   101.1975 H            1 NAD1416   0.0000
    67 H7N2       148.5506    60.2792    99.8078 H            1 NAD1416   0.0000
    68 H4N        151.9092    61.8614   102.3266 H            1 NAD1416   0.0000
    69 H5N        153.1825    63.5739   101.2211 H            1 NAD1416   0.0000
    70 H6N        152.4444    64.3844    99.0887 H            1 NAD1416   0.0000
@<TRIPOS>BOND
     1    1    2      ar
     2    1    3      ar
     3    1    4       1
     4    1   23       1
     5    4    5       1
     6    5    6       1
     7    6    7       1
     8    6    8       1
     9    7   12       1
    10    8    9       1
    11    8   10       1
    12   10   11       1
    13   10   12       1
    14   12   13       1
    15   13   14       1
    16   13   22       1
    17   14   15       2
    18   15   16       1
    19   16   17      ar
    20   16   22      ar
    21   17   18       1
    22   17   19      ar
    23   19   20      ar
    24   20   21      ar
    25   21   22      ar
    26   23   24       1
    27   24   25      ar
    28   24   26      ar
    29   24   27       1
    30   27   28       1
    31   28   29       1
    32   29   30       1
    33   29   31       1
    34   30   35       1
    35   31   32       1
    36   31   33       1
    37   33   34       1
    38   33   35       1
    39   35   36       1
    40   36   37      ar
    41   36   44      ar
    42   37   38      ar
    43   38   39       1
    44   38   42      ar
    45   39   40       2
    46   39   41      am
    47   42   43      ar
    48   43   44      ar
    49   44   70       1
    50    5   45       1
    51    5   46       1
    52    6   47       1
    53    8   48       1
    54    9   49       1
    55   10   50       1
    56   11   51       1
    57   12   52       1
    58   14   53       1
    59   18   54       1
    60   18   55       1
    61   20   56       1
    62   43   69       1
    63   28   57       1
    64   28   58       1
    65   29   59       1
    66   31   60       1
    67   32   61       1
    68   33   62       1
    69   34   63       1
    70   35   64       1
    71   37   65       1
    72   41   66       1
    73   41   67       1
    74   42   68       1
@<TRIPOS>SUBSTRUCTURE
     1 NAD1416     1 GROUP             4 A     NAD     0 **** NAD A1416
