@<TRIPOS>MOLECULE
1dlj_UGA_1_ligand
   56    58     1     0     0
SMALL
NO_CHARGES


@<TRIPOS>ATOM
     1 C1'        -16.9240    14.6940    55.7480 C.3          1 UGA404   0.0000
     2 C2'        -18.0040    14.8830    54.6660 C.3          1 UGA404   0.0000
     3 O2'        -17.8970    16.2000    54.1500 O.3          1 UGA404   0.0000
     4 C3'        -19.3980    14.6850    55.2640 C.3          1 UGA404   0.0000
     5 O3'        -20.4060    14.8020    54.2480 O.3          1 UGA404   0.0000
     6 C4'        -19.4740    13.3100    55.9190 C.3          1 UGA404   0.0000
     7 O4'        -20.7590    13.1430    56.5120 O.3          1 UGA404   0.0000
     8 C5'        -18.3750    13.2420    56.9910 C.3          1 UGA404   0.0000
     9 O5'        -17.0830    13.4440    56.3850 O.3          1 UGA404   0.0000
    10 C6'        -18.3460    11.8670    57.6510 C.2          1 UGA404   0.0000
    11 O'P        -18.6880    10.8530    56.9830 O.co2        1 UGA404   0.0000
    12 O'Q        -17.9790    11.7980    58.8500 O.co2        1 UGA404  -1.0000
    13 PB         -15.7640    16.0800    57.6200 P.3          1 UGA404   0.0000
    14 O1B        -15.0170    14.8250    57.9110 O.co2        1 UGA404   0.0000
    15 O2B        -16.2980    16.9010    58.7640 O.co2        1 UGA404  -1.0000
    16 O3B        -16.9900    15.7460    56.6600 O.3          1 UGA404   0.0000
    17 O3A        -14.7650    17.0020    56.7970 O.3          1 UGA404   0.0000
    18 PA         -14.6200    17.7010    55.3630 P.3          1 UGA404   0.0000
    19 O1A        -14.9700    19.1280    55.4940 O.co2        1 UGA404   0.0000
    20 O2A        -15.3020    16.8640    54.3500 O.co2        1 UGA404  -1.0000
    21 O5D        -13.0450    17.5720    55.1050 O.3          1 UGA404   0.0000
    22 C5D        -12.4280    16.2730    55.1280 C.3          1 UGA404   0.0000
    23 C4D        -10.9220    16.3750    54.9740 C.3          1 UGA404   0.0000
    24 O4D        -10.5880    16.7390    53.6020 O.3          1 UGA404   0.0000
    25 C3D        -10.3630    17.4710    55.8750 C.3          1 UGA404   0.0000
    26 O3D         -9.1060    17.0310    56.4180 O.3          1 UGA404   0.0000
    27 C2D        -10.1950    18.6560    54.9240 C.3          1 UGA404   0.0000
    28 O2D         -9.1300    19.5450    55.3490 O.3          1 UGA404   0.0000
    29 C1D         -9.8270    17.9730    53.6100 C.3          1 UGA404   0.0000
    30 N1         -10.1810    18.8780    52.5140 N.pl3        1 UGA404   0.0000
    31 C6         -11.5050    19.1060    52.2000 C.2          1 UGA404   0.0000
    32 C2          -9.1610    19.5120    51.8260 C.2          1 UGA404   0.0000
    33 O2          -7.9660    19.3310    52.0610 O.2          1 UGA404   0.0000
    34 N3          -9.5810    20.3710    50.8330 N.pl3        1 UGA404   0.0000
    35 C4         -10.8860    20.6520    50.4750 C.2          1 UGA404   0.0000
    36 O4         -11.1240    21.4760    49.5930 O.2          1 UGA404   0.0000
    37 C5         -11.8720    19.9450    51.2300 C.2          1 UGA404   0.0000
    38 H1'        -16.0268    14.7129    55.3068 H            1 UGA404   0.0000
    39 H2'        -17.8590    14.2223    53.9295 H            1 UGA404   0.0000
    40 H3         -16.9459    16.5038    54.2062 H            1 UGA404   0.0000
    41 H3'        -19.5554    15.3856    55.9600 H            1 UGA404   0.0000
    42 H5         -21.2493    15.1542    54.6541 H            1 UGA404   0.0000
    43 H4'        -19.3224    12.5987    55.2326 H            1 UGA404   0.0000
    44 H7         -20.9020    13.8518    57.2027 H            1 UGA404   0.0000
    45 H5'        -18.5360    13.9450    57.6837 H            1 UGA404   0.0000
    46 H5D1       -12.7958    15.7244    54.3772 H            1 UGA404   0.0000
    47 H5D2       -12.6370    15.8285    55.9991 H            1 UGA404   0.0000
    48 H4D        -10.4983    15.4989    55.2043 H            1 UGA404   0.0000
    49 H3D        -11.0077    17.6920    56.6068 H            1 UGA404   0.0000
    50 H13         -8.9676    17.4463    57.3171 H            1 UGA404   0.0000
    51 H2D        -11.0554    19.1571    54.8310 H            1 UGA404   0.0000
    52 H15         -9.3389    20.4786    55.0577 H            1 UGA404   0.0000
    53 H1D         -8.8474    17.7733    53.5886 H            1 UGA404   0.0000
    54 H17        -12.2136    18.6260    52.7171 H            1 UGA404   0.0000
    55 H18         -8.8651    20.8409    50.3166 H            1 UGA404   0.0000
    56 H19        -12.8425    20.0799    51.0301 H            1 UGA404   0.0000
@<TRIPOS>BOND
     1    1    2       1
     2    1    9       1
     3    1   16       1
     4    2    3       1
     5    2    4       1
     6    4    5       1
     7    4    6       1
     8    6    7       1
     9    6    8       1
    10    8    9       1
    11    8   10       1
    12   10   11      ar
    13   10   12      ar
    14   13   14      ar
    15   13   15      ar
    16   13   16       1
    17   13   17       1
    18   17   18       1
    19   18   19      ar
    20   18   20      ar
    21   18   21       1
    22   21   22       1
    23   22   23       1
    24   23   24       1
    25   23   25       1
    26   24   29       1
    27   25   26       1
    28   25   27       1
    29   27   28       1
    30   27   29       1
    31   29   30       1
    32   30   31       1
    33   30   32       1
    34   31   37       2
    35   32   33       2
    36   32   34       1
    37   34   35       1
    38   35   36       2
    39   35   37       1
    40    1   38       1
    41    2   39       1
    42    3   40       1
    43    4   41       1
    44    5   42       1
    45    6   43       1
    46    7   44       1
    47    8   45       1
    48   37   56       1
    49   34   55       1
    50   31   54       1
    51   22   46       1
    52   22   47       1
    53   23   48       1
    54   25   49       1
    55   26   50       1
    56   27   51       1
    57   28   52       1
    58   29   53       1
@<TRIPOS>SUBSTRUCTURE
     1 UGA404      1 GROUP             4 A     UGA     0 **** UGA A 404
