@<TRIPOS>MOLECULE
3vw9_HPJ_1_ligand
   48    51     1     0     0
SMALL
NO_CHARGES


@<TRIPOS>ATOM
     1 C4           5.6130   -10.7480   -24.6640 C.3          1 HPJ203   0.0000
     2 C14          9.7490   -12.1760   -28.2440 C.ar         1 HPJ203   0.0000
     3 C5           5.2810   -10.5450   -26.1660 C.3          1 HPJ203   0.0000
     4 C11          7.2330   -11.6170   -27.2870 C.ar         1 HPJ203   0.0000
     5 C7           5.3370   -12.6620   -27.4930 C.2          1 HPJ203   0.0000
     6 C8           6.2500   -13.3940   -28.1340 C.2          1 HPJ203   0.0000
     7 C9           7.4300   -12.7650   -28.0510 C.ar         1 HPJ203   0.0000
     8 C10          8.7220   -13.0980   -28.4770 C.ar         1 HPJ203   0.0000
     9 C13          9.4790   -11.0440   -27.4650 C.ar         1 HPJ203   0.0000
    10 C3           4.9530   -11.9970   -24.0440 C.3          1 HPJ203   0.0000
    11 C1           2.8650   -13.0760   -23.7180 C.3          1 HPJ203   0.0000
    12 O2           3.5280   -11.8320   -23.9930 O.3          1 HPJ203   0.0000
    13 N6           5.9400   -11.5870   -26.9870 N.pl3        1 HPJ203   0.0000
    14 N12          8.2550   -10.7870   -27.0010 N.ar         1 HPJ203   0.0000
    15 C15         11.0720   -12.4630   -28.6030 C.ar         1 HPJ203   0.0000
    16 C16         11.4590   -12.8890   -29.8730 C.ar         1 HPJ203   0.0000
    17 N17         12.0630   -12.3360   -27.6070 N.ar         1 HPJ203   1.0000
    18 O18         11.7860   -11.8910   -26.3050 O.3          1 HPJ203  -1.0000
    19 C20         13.4030   -12.6430   -27.8780 C.ar         1 HPJ203   0.0000
    20 O21         14.2160   -12.4940   -26.9410 O.3          1 HPJ203  -1.0000
    21 C22         13.7770   -13.0590   -29.1660 C.ar         1 HPJ203   0.0000
    22 C23         12.8170   -13.1490   -30.1900 C.ar         1 HPJ203   0.0000
    23 C24         13.1880   -13.5830   -31.4890 C.ar         1 HPJ203   0.0000
    24 C25         12.3010   -14.3370   -32.2790 C.ar         1 HPJ203   0.0000
    25 C26         12.7100   -14.7920   -33.5450 C.ar         1 HPJ203   0.0000
    26 C27         13.9870   -14.4920   -34.0400 C.ar         1 HPJ203   0.0000
    27 C28         14.8670   -13.7200   -33.2830 C.ar         1 HPJ203   0.0000
    28 C29         14.4580   -13.2700   -32.0150 C.ar         1 HPJ203   0.0000
    29 H1           5.2998    -9.9429   -24.1602 H            1 HPJ203   0.0000
    30 H2           6.6047   -10.8355   -24.5693 H            1 HPJ203   0.0000
    31 H3           5.6041    -9.6441   -26.4559 H            1 HPJ203   0.0000
    32 H4           4.2910   -10.6014   -26.2950 H            1 HPJ203   0.0000
    33 H5           4.3654   -12.8827   -27.4070 H            1 HPJ203   0.0000
    34 H6           6.0821   -14.2640   -28.5975 H            1 HPJ203   0.0000
    35 H7           8.9052   -13.9684   -28.9339 H            1 HPJ203   0.0000
    36 H8          10.2235   -10.4116   -27.2509 H            1 HPJ203   0.0000
    37 H9           5.3034   -12.1297   -23.1169 H            1 HPJ203   0.0000
    38 H10          5.1729   -12.7977   -24.6013 H            1 HPJ203   0.0000
    39 H11          1.8765   -12.9276   -23.6891 H            1 HPJ203   0.0000
    40 H12          3.0821   -13.7356   -24.4375 H            1 HPJ203   0.0000
    41 H13          3.1747   -13.4309   -22.8359 H            1 HPJ203   0.0000
    42 H14         10.7614   -13.0144   -30.5784 H            1 HPJ203   0.0000
    43 H15         14.7306   -13.2924   -29.3561 H            1 HPJ203   0.0000
    44 H16         11.3837   -14.5484   -31.9416 H            1 HPJ203   0.0000
    45 H17         12.0815   -15.3370   -34.0999 H            1 HPJ203   0.0000
    46 H18         14.2670   -14.8324   -34.9376 H            1 HPJ203   0.0000
    47 H19         15.7740   -13.4900   -33.6358 H            1 HPJ203   0.0000
    48 H20         15.0854   -12.7125   -31.4713 H            1 HPJ203   0.0000
@<TRIPOS>BOND
     1    1    3       1
     2    1   10       1
     3    2    8      ar
     4    2    9      ar
     5    2   15       1
     6    3   13       1
     7    4    7      ar
     8    4   13       1
     9    4   14      ar
    10    5    6       2
    11    5   13       1
    12    6    7       1
    13    7    8      ar
    14    9   14      ar
    15   10   12       1
    16   11   12       1
    17   15   16      ar
    18   15   17      ar
    19   16   22      ar
    20   17   18       1
    21   17   19      ar
    22   19   20       1
    23   19   21      ar
    24   21   22      ar
    25   22   23       1
    26   23   24      ar
    27   23   28      ar
    28   24   25      ar
    29   25   26      ar
    30   26   27      ar
    31   27   28      ar
    32    1   29       1
    33    1   30       1
    34    3   31       1
    35    3   32       1
    36    5   33       1
    37    6   34       1
    38    8   35       1
    39    9   36       1
    40   10   37       1
    41   10   38       1
    42   11   39       1
    43   11   40       1
    44   11   41       1
    45   16   42       1
    46   28   48       1
    47   21   43       1
    48   24   44       1
    49   25   45       1
    50   26   46       1
    51   27   47       1
@<TRIPOS>SUBSTRUCTURE
     1 HPJ203      1 GROUP             4 A     HPJ     0 **** HPJ A 203
