@<TRIPOS>MOLECULE
3zu2_NAI_1_ligand
   71    75     1     0     0
SMALL
NO_CHARGES


@<TRIPOS>ATOM
     1 PA          35.5250    66.7790     5.9820 P.3          1 NAI1423   0.0000
     2 O1A         34.1350    67.0580     5.4880 O.co2        1 NAI1423   0.0000
     3 O2A         36.3620    66.3660     4.7850 O.co2        1 NAI1423  -1.0000
     4 O5B         35.9950    68.0240     6.7810 O.3          1 NAI1423   0.0000
     5 C5B         37.3210    68.2320     7.1340 C.3          1 NAI1423   0.0000
     6 C4B         37.4540    69.6130     7.7090 C.3          1 NAI1423   0.0000
     7 O4B         38.7380    69.8540     8.2030 O.3          1 NAI1423   0.0000
     8 C3B         37.2170    70.6670     6.6900 C.3          1 NAI1423   0.0000
     9 O3B         36.7670    71.7940     7.3490 O.3          1 NAI1423   0.0000
    10 C2B         38.5730    70.9500     6.2130 C.3          1 NAI1423   0.0000
    11 O2B         38.6880    72.1780     5.6030 O.3          1 NAI1423   0.0000
    12 C1B         39.2840    70.9410     7.4960 C.3          1 NAI1423   0.0000
    13 N9A         40.6810    70.7450     7.2700 N.pl3        1 NAI1423   0.0000
    14 C8A         41.2280    69.7230     6.5690 C.2          1 NAI1423   0.0000
    15 N7A         42.5810    69.8710     6.6010 N.2          1 NAI1423   0.0000
    16 C5A         42.8650    70.9790     7.3170 C.ar         1 NAI1423   0.0000
    17 C6A         44.0550    71.5820     7.6440 C.ar         1 NAI1423   0.0000
    18 N6A         45.2960    71.0280     7.1830 N.pl3        1 NAI1423   0.0000
    19 N1A         44.0590    72.6970     8.3830 N.ar         1 NAI1423   0.0000
    20 C2A         42.8850    73.2410     8.8010 C.ar         1 NAI1423   0.0000
    21 N3A         41.7030    72.6440     8.4700 N.ar         1 NAI1423   0.0000
    22 C4A         41.6890    71.5260     7.7270 C.ar         1 NAI1423   0.0000
    23 O3          35.6950    65.6670     7.0860 O.3          1 NAI1423   0.0000
    24 PN          34.6750    64.8710     7.9790 P.3          1 NAI1423   0.0000
    25 O1N         34.3400    63.6410     7.1800 O.co2        1 NAI1423   0.0000
    26 O2N         33.4160    65.5770     8.4300 O.co2        1 NAI1423  -1.0000
    27 O5D         35.5740    64.5140     9.2080 O.3          1 NAI1423   0.0000
    28 C5D         35.6350    65.2790    10.3610 C.3          1 NAI1423   0.0000
    29 C4D         35.9410    64.3940    11.5380 C.3          1 NAI1423   0.0000
    30 O4D         34.9020    63.4950    11.7680 O.3          1 NAI1423   0.0000
    31 C3D         37.1210    63.5510    11.2750 C.3          1 NAI1423   0.0000
    32 O3D         37.8920    63.3700    12.5000 O.3          1 NAI1423   0.0000
    33 C2D         36.6270    62.2650    10.8050 C.3          1 NAI1423   0.0000
    34 O2D         37.5240    61.2740    11.1030 O.3          1 NAI1423   0.0000
    35 C1D         35.4370    62.1990    11.6490 C.3          1 NAI1423   0.0000
    36 N1N         34.4260    61.1780    11.1880 N.pl3        1 NAI1423   0.0000
    37 C2N         34.0510    61.0390     9.8200 C.2          1 NAI1423   0.0000
    38 C3N         32.9660    60.2840     9.4740 C.2          1 NAI1423   0.0000
    39 C7N         32.5410    60.1910     8.0590 C.2          1 NAI1423   0.0000
    40 O7N         31.9540    58.9970     7.8520 O.2          1 NAI1423   0.0000
    41 N7N         32.8420    61.3050     7.3500 N.am         1 NAI1423   0.0000
    42 C4N         32.3830    59.2800    10.4330 C.3          1 NAI1423   0.0000
    43 C5N         32.6490    59.6750    11.8610 C.2          1 NAI1423   0.0000
    44 C6N         33.7350    60.4420    12.1880 C.2          1 NAI1423   0.0000
    45 H5B1        37.9022    68.1468     6.3247 H            1 NAI1423   0.0000
    46 H5B2        37.5980    67.5552     7.8161 H            1 NAI1423   0.0000
    47 H4B         36.7930    69.7224     8.4513 H            1 NAI1423   0.0000
    48 H3B         36.6012    70.3711     5.9597 H            1 NAI1423   0.0000
    49 H5          36.5984    72.5230     6.6856 H            1 NAI1423   0.0000
    50 H2B         38.9028    70.2197     5.6147 H            1 NAI1423   0.0000
    51 H7          37.8177    72.4198     5.1739 H            1 NAI1423   0.0000
    52 H1B         39.1256    71.7957     7.9904 H            1 NAI1423   0.0000
    53 H8A         40.7268    68.9898     6.1094 H            1 NAI1423   0.0000
    54 H6A1        46.1605    71.4696     7.4230 H            1 NAI1423   0.0000
    55 H6A2        45.2962    70.2003     6.6218 H            1 NAI1423   0.0000
    56 H2A         42.8876    74.0769     9.3499 H            1 NAI1423   0.0000
    57 H5D1        34.7560    65.7333    10.5058 H            1 NAI1423   0.0000
    58 H5D2        36.3543    65.9672    10.2661 H            1 NAI1423   0.0000
    59 H4D         36.0956    64.9522    12.3532 H            1 NAI1423   0.0000
    60 H3D         37.6925    63.9743    10.5720 H            1 NAI1423   0.0000
    61 H17         37.3206    62.9276    13.1912 H            1 NAI1423   0.0000
    62 H2D         36.3970    62.2836     9.8320 H            1 NAI1423   0.0000
    63 H19         38.3978    61.4705    10.6582 H            1 NAI1423   0.0000
    64 H1D         35.7392    61.9215    12.5610 H            1 NAI1423   0.0000
    65 H2N         34.5851    61.4967     9.1092 H            1 NAI1423   0.0000
    66 H7N1        32.6035    61.3603     6.3804 H            1 NAI1423   0.0000
    67 H7N2        33.3028    62.0723     7.7961 H            1 NAI1423   0.0000
    68 H4N1        32.7951    58.3855    10.2596 H            1 NAI1423   0.0000
    69 H4N2        31.3951    59.2256    10.2880 H            1 NAI1423   0.0000
    70 H5N         32.0239    59.3730    12.5808 H            1 NAI1423   0.0000
    71 H6N         34.0443    60.4846    13.1380 H            1 NAI1423   0.0000
@<TRIPOS>BOND
     1    1    2      ar
     2    1    3      ar
     3    1    4       1
     4    1   23       1
     5    4    5       1
     6    5    6       1
     7    6    7       1
     8    6    8       1
     9    7   12       1
    10    8    9       1
    11    8   10       1
    12   10   11       1
    13   10   12       1
    14   12   13       1
    15   13   14       1
    16   13   22       1
    17   14   15       2
    18   15   16       1
    19   16   17      ar
    20   16   22      ar
    21   17   18       1
    22   17   19      ar
    23   19   20      ar
    24   20   21      ar
    25   21   22      ar
    26   23   24       1
    27   24   25      ar
    28   24   26      ar
    29   24   27       1
    30   27   28       1
    31   28   29       1
    32   29   30       1
    33   29   31       1
    34   30   35       1
    35   31   32       1
    36   31   33       1
    37   33   34       1
    38   33   35       1
    39   35   36       1
    40   36   37       1
    41   36   44       1
    42   37   38       2
    43   38   39       1
    44   38   42       1
    45   39   40       2
    46   39   41      am
    47   42   43       1
    48   43   44       2
    49   44   71       1
    50    5   45       1
    51    5   46       1
    52    6   47       1
    53    8   48       1
    54    9   49       1
    55   10   50       1
    56   11   51       1
    57   12   52       1
    58   14   53       1
    59   18   54       1
    60   18   55       1
    61   20   56       1
    62   43   70       1
    63   28   57       1
    64   28   58       1
    65   29   59       1
    66   31   60       1
    67   32   61       1
    68   33   62       1
    69   34   63       1
    70   35   64       1
    71   37   65       1
    72   41   66       1
    73   41   67       1
    74   42   68       1
    75   42   69       1
@<TRIPOS>SUBSTRUCTURE
     1 NAI1423     1 GROUP             4 A     NAI     0 **** NAI A1423
