@<TRIPOS>MOLECULE
4wvd_IVM_1_ligand
  134   140     1     0     0
SMALL
NO_CHARGES


@<TRIPOS>ATOM
     1 C1           9.0370   -23.2790   -50.8410 C.3          1 IVM505   0.0000
     2 O1           9.0240   -25.2920   -52.7420 O.3          1 IVM505   0.0000
     3 C2          10.5270   -23.5070   -50.8950 C.3          1 IVM505   0.0000
     4 O2           4.0070   -21.1140   -50.2410 O.3          1 IVM505   0.0000
     5 C3          10.6970   -24.9660   -51.2130 C.3          1 IVM505   0.0000
     6 O3           6.8990   -20.0500   -47.8140 O.3          1 IVM505   0.0000
     7 C4          11.4120   -25.1140   -52.5340 C.3          1 IVM505   0.0000
     8 O4           5.1140   -17.8850   -47.5850 O.3          1 IVM505   0.0000
     9 C5           9.3210   -25.4920   -51.3990 C.3          1 IVM505   0.0000
    10 O5           6.0570   -13.9960   -47.2350 O.3          1 IVM505   0.0000
    11 C6           7.9990   -26.1430   -53.1630 C.3          1 IVM505   0.0000
    12 O6           3.5110   -14.5340   -46.1060 O.3          1 IVM505   0.0000
    13 C7           8.5080   -27.5370   -53.2350 C.3          1 IVM505   0.0000
    14 O7           5.3400   -17.5230   -45.5010 O.3          1 IVM505   0.0000
    15 C8           9.7010   -27.6260   -52.3670 C.3          1 IVM505   0.0000
    16 O8           3.0180   -20.5470   -48.2330 O.3          1 IVM505   0.0000
    17 C9           9.3900   -26.9310   -51.1100 C.3          1 IVM505   0.0000
    18 O9           3.9990   -21.7530   -58.5940 O.3          1 IVM505   0.0000
    19 C10          8.0140   -27.3680   -50.6870 C.3          1 IVM505   0.0000
    20 O10          4.9120   -21.1680   -60.8710 O.3          1 IVM505   0.0000
    21 C11          7.5130   -25.7280   -54.5110 C.3          1 IVM505   0.0000
    22 O11          8.0810   -23.5940   -56.9030 O.2          1 IVM505   0.0000
    23 C12          7.3520   -24.2510   -54.5300 C.3          1 IVM505   0.0000
    24 O12          6.3410   -23.8500   -55.4760 O.3          1 IVM505   0.0000
    25 C13          7.0000   -23.7290   -53.1290 C.3          1 IVM505   0.0000
    26 O13          6.9440   -20.9440   -56.9870 O.3          1 IVM505   0.0000
    27 C14          6.6160   -24.7340   -52.0090 C.3          1 IVM505   0.0000
    28 O14          6.9640   -26.0710   -52.2680 O.3          1 IVM505   0.0000
    29 C15          5.1350   -24.6610   -51.7840 C.2          1 IVM505   0.0000
    30 C16          4.8020   -23.3740   -51.4130 C.2          1 IVM505   0.0000
    31 C17          3.4680   -23.0250   -51.3920 C.2          1 IVM505   0.0000
    32 C18          2.5420   -23.9700   -51.7530 C.2          1 IVM505   0.0000
    33 C19          3.0360   -21.7760   -51.0110 C.3          1 IVM505   0.0000
    34 C20          3.8610   -21.4380   -48.9230 C.3          1 IVM505   0.0000
    35 C21          5.1910   -21.3780   -48.3510 C.3          1 IVM505   0.0000
    36 C22          5.6550   -20.0050   -48.3920 C.3          1 IVM505   0.0000
    37 C23          7.5390   -18.8080   -47.9600 C.3          1 IVM505   0.0000
    38 C24          4.7580   -19.2130   -47.5220 C.3          1 IVM505   0.0000
    39 C25          6.0720   -17.6150   -46.6560 C.3          1 IVM505   0.0000
    40 C26          6.6410   -16.2740   -46.9670 C.3          1 IVM505   0.0000
    41 C27          5.5190   -15.2960   -47.1450 C.3          1 IVM505   0.0000
    42 C28          5.0500   -13.0450   -46.9350 C.3          1 IVM505   0.0000
    43 C29          4.6610   -15.3580   -45.9400 C.3          1 IVM505   0.0000
    44 C30          4.2240   -16.7630   -45.7870 C.3          1 IVM505   0.0000
    45 C31          3.2970   -16.8120   -44.5910 C.3          1 IVM505   0.0000
    46 C32          3.4530   -19.2390   -48.1420 C.3          1 IVM505   0.0000
    47 C33          2.5160   -18.4660   -47.2420 C.3          1 IVM505   0.0000
    48 C34          2.8420   -20.9360   -52.2420 C.3          1 IVM505   0.0000
    49 C35          2.7390   -19.4970   -51.7850 C.3          1 IVM505   0.0000
    50 C36          3.9530   -21.0270   -53.0410 C.2          1 IVM505   0.0000
    51 C37          3.8080   -21.2300   -54.3990 C.2          1 IVM505   0.0000
    52 C38          4.9360   -21.3030   -55.2000 C.2          1 IVM505   0.0000
    53 C39          4.7430   -21.5130   -56.4880 C.2          1 IVM505   0.0000
    54 C40          3.5820   -21.6880   -57.2280 C.3          1 IVM505   0.0000
    55 C41          5.1280   -20.9560   -58.5480 C.3          1 IVM505   0.0000
    56 C42          5.8680   -21.0970   -59.8280 C.3          1 IVM505   0.0000
    57 C43          6.6100   -22.2330   -59.8780 C.2          1 IVM505   0.0000
    58 C44          6.7000   -23.1540   -58.8390 C.2          1 IVM505   0.0000
    59 C45          6.0470   -23.0570   -57.6360 C.3          1 IVM505   0.0000
    60 C46          6.8950   -23.5050   -56.6600 C.2          1 IVM505   0.0000
    61 C47          5.7680   -21.6110   -57.3770 C.3          1 IVM505   0.0000
    62 C48          7.2870   -22.4430   -61.0540 C.3          1 IVM505   0.0000
    63 H1           8.8541   -22.3185   -50.6314 H            1 IVM505   0.0000
    64 H2           8.6321   -23.5101   -51.7257 H            1 IVM505   0.0000
    65 H3           8.6368   -23.8573   -50.1301 H            1 IVM505   0.0000
    66 H4          10.9462   -23.2900   -50.0134 H            1 IVM505   0.0000
    67 H5          10.9415   -22.9428   -51.6091 H            1 IVM505   0.0000
    68 H6          11.1776   -25.4474   -50.4800 H            1 IVM505   0.0000
    69 H7          11.5248   -26.0849   -52.7450 H            1 IVM505   0.0000
    70 H8          10.8744   -24.6765   -53.2548 H            1 IVM505   0.0000
    71 H9          12.3105   -24.6786   -52.4773 H            1 IVM505   0.0000
    72 H10          8.6654   -25.0276   -50.8035 H            1 IVM505   0.0000
    73 H11          2.7732   -15.0701   -46.5161 H            1 IVM505   0.0000
    74 H12          8.7554   -27.7608   -54.1777 H            1 IVM505   0.0000
    75 H13          7.8057   -28.1728   -52.9147 H            1 IVM505   0.0000
    76 H14         10.4813   -27.1887   -52.8142 H            1 IVM505   0.0000
    77 H15          9.9171   -28.5847   -52.1820 H            1 IVM505   0.0000
    78 H16         10.0699   -27.1300   -50.4042 H            1 IVM505   0.0000
    79 H17          8.0235   -28.3466   -50.4815 H            1 IVM505   0.0000
    80 H18          7.7385   -26.8588   -49.8716 H            1 IVM505   0.0000
    81 H19          7.3653   -27.1890   -51.4267 H            1 IVM505   0.0000
    82 H20          4.0717   -21.5855   -60.5251 H            1 IVM505   0.0000
    83 H21          6.6331   -26.1642   -54.6997 H            1 IVM505   0.0000
    84 H22          8.1770   -26.0024   -55.2065 H            1 IVM505   0.0000
    85 H23          8.2219   -23.8435   -54.8079 H            1 IVM505   0.0000
    86 H24          6.2256   -23.1056   -53.2376 H            1 IVM505   0.0000
    87 H25          7.7951   -23.2189   -52.8011 H            1 IVM505   0.0000
    88 H26          7.6443   -21.0641   -57.6906 H            1 IVM505   0.0000
    89 H27          7.0735   -24.4508   -51.1661 H            1 IVM505   0.0000
    90 H28          4.4933   -25.4211   -51.8862 H            1 IVM505   0.0000
    91 H29          5.5095   -22.7119   -51.1659 H            1 IVM505   0.0000
    92 H30          1.5680   -23.7436   -51.7467 H            1 IVM505   0.0000
    93 H31          2.8408   -24.8854   -52.0226 H            1 IVM505   0.0000
    94 H32          2.1786   -21.8466   -50.5012 H            1 IVM505   0.0000
    95 H33          3.5031   -22.3684   -48.8436 H            1 IVM505   0.0000
    96 H34          5.8107   -21.9582   -48.8794 H            1 IVM505   0.0000
    97 H35          5.1640   -21.6956   -47.4032 H            1 IVM505   0.0000
    98 H36          5.6867   -19.6465   -49.3250 H            1 IVM505   0.0000
    99 H37          8.4442   -18.8477   -47.5370 H            1 IVM505   0.0000
   100 H38          7.6345   -18.5945   -48.9323 H            1 IVM505   0.0000
   101 H39          6.9938   -18.0977   -47.5147 H            1 IVM505   0.0000
   102 H40          4.7391   -19.5568   -46.5831 H            1 IVM505   0.0000
   103 H41          6.7725   -18.3271   -46.6099 H            1 IVM505   0.0000
   104 H42          7.1779   -16.3249   -47.8091 H            1 IVM505   0.0000
   105 H43          7.2286   -15.9766   -46.2145 H            1 IVM505   0.0000
   106 H44          4.9895   -15.5144   -47.9647 H            1 IVM505   0.0000
   107 H45          5.4323   -12.1232   -46.9990 H            1 IVM505   0.0000
   108 H46          4.2973   -13.1397   -47.5866 H            1 IVM505   0.0000
   109 H47          4.7098   -13.2011   -46.0077 H            1 IVM505   0.0000
   110 H48          5.1780   -15.0689   -45.1343 H            1 IVM505   0.0000
   111 H49          3.7656   -17.0908   -46.6131 H            1 IVM505   0.0000
   112 H50          2.4807   -16.2660   -44.7794 H            1 IVM505   0.0000
   113 H51          3.0307   -17.7596   -44.4142 H            1 IVM505   0.0000
   114 H52          3.7673   -16.4428   -43.7894 H            1 IVM505   0.0000
   115 H53          3.4897   -18.8199   -49.0492 H            1 IVM505   0.0000
   116 H54          2.8267   -17.5180   -47.1728 H            1 IVM505   0.0000
   117 H55          1.5926   -18.4870   -47.6254 H            1 IVM505   0.0000
   118 H56          2.5089   -18.8817   -46.3325 H            1 IVM505   0.0000
   119 H57          2.0198   -21.2136   -52.7390 H            1 IVM505   0.0000
   120 H58          2.6087   -18.9035   -52.5792 H            1 IVM505   0.0000
   121 H59          1.9609   -19.3992   -51.1646 H            1 IVM505   0.0000
   122 H60          3.5794   -19.2374   -51.3092 H            1 IVM505   0.0000
   123 H61          4.8660   -20.9465   -52.6410 H            1 IVM505   0.0000
   124 H62          2.8970   -21.3235   -54.8007 H            1 IVM505   0.0000
   125 H63          5.8550   -21.2011   -54.8190 H            1 IVM505   0.0000
   126 H64          3.1241   -22.5365   -56.9626 H            1 IVM505   0.0000
   127 H65          2.9609   -20.9166   -57.0895 H            1 IVM505   0.0000
   128 H66          4.8986   -20.0015   -58.3574 H            1 IVM505   0.0000
   129 H67          6.4587   -20.3019   -59.9654 H            1 IVM505   0.0000
   130 H68          7.2878   -23.9506   -58.9803 H            1 IVM505   0.0000
   131 H69          5.2000   -23.5884   -57.6452 H            1 IVM505   0.0000
   132 H70          7.8010   -23.2987   -60.9945 H            1 IVM505   0.0000
   133 H71          6.6339   -22.4982   -61.8093 H            1 IVM505   0.0000
   134 H72          7.9191   -21.6850   -61.2147 H            1 IVM505   0.0000
@<TRIPOS>BOND
     1    1    3       1
     2    2    9       1
     3    2   11       1
     4    3    5       1
     5    4   33       1
     6    4   34       1
     7    5    7       1
     8    5    9       1
     9    6   36       1
    10    6   37       1
    11    8   38       1
    12    8   39       1
    13    9   17       1
    14   10   41       1
    15   10   42       1
    16   11   13       1
    17   11   21       1
    18   11   28       1
    19   12   43       1
    20   13   15       1
    21   14   39       1
    22   14   44       1
    23   15   17       1
    24   16   34       1
    25   16   46       1
    26   17   19       1
    27   18   54       1
    28   18   55       1
    29   20   56       1
    30   21   23       1
    31   22   60       2
    32   23   24       1
    33   23   25       1
    34   24   60       1
    35   25   27       1
    36   26   61       1
    37   27   28       1
    38   27   29       1
    39   29   30       2
    40   30   31       1
    41   31   32       2
    42   31   33       1
    43   33   48       1
    44   34   35       1
    45   35   36       1
    46   36   38       1
    47   38   46       1
    48   39   40       1
    49   40   41       1
    50   41   43       1
    51   43   44       1
    52   44   45       1
    53   46   47       1
    54   48   49       1
    55   48   50       1
    56   50   51       2
    57   51   52       1
    58   52   53       2
    59   53   54       1
    60   53   61       1
    61   55   56       1
    62   55   61       1
    63   56   57       1
    64   57   58       2
    65   57   62       1
    66   58   59       1
    67   59   60       1
    68   59   61       1
    69    1   63       1
    70    1   64       1
    71    1   65       1
    72    3   66       1
    73    3   67       1
    74    5   68       1
    75    7   69       1
    76    7   70       1
    77    7   71       1
    78    9   72       1
    79   12   73       1
    80   13   74       1
    81   13   75       1
    82   15   76       1
    83   15   77       1
    84   17   78       1
    85   19   79       1
    86   19   80       1
    87   19   81       1
    88   20   82       1
    89   21   83       1
    90   21   84       1
    91   23   85       1
    92   25   86       1
    93   25   87       1
    94   26   88       1
    95   27   89       1
    96   29   90       1
    97   30   91       1
    98   32   92       1
    99   32   93       1
   100   33   94       1
   101   34   95       1
   102   35   96       1
   103   35   97       1
   104   36   98       1
   105   37   99       1
   106   37  100       1
   107   37  101       1
   108   38  102       1
   109   39  103       1
   110   40  104       1
   111   40  105       1
   112   41  106       1
   113   42  107       1
   114   42  108       1
   115   42  109       1
   116   43  110       1
   117   44  111       1
   118   45  112       1
   119   45  113       1
   120   45  114       1
   121   46  115       1
   122   47  116       1
   123   47  117       1
   124   47  118       1
   125   48  119       1
   126   49  120       1
   127   49  121       1
   128   49  122       1
   129   50  123       1
   130   51  124       1
   131   52  125       1
   132   54  126       1
   133   54  127       1
   134   55  128       1
   135   56  129       1
   136   58  130       1
   137   59  131       1
   138   62  132       1
   139   62  133       1
   140   62  134       1
@<TRIPOS>SUBSTRUCTURE
     1 IVM505      1 GROUP             4 A     IVM     0 **** IVM A 505
