@<TRIPOS>MOLECULE
./coach420/1fqo/ligand.pdb
 31 28 0 0 0
SMALL
GASTEIGER

@<TRIPOS>ATOM
      1  C1        17.3300   10.3680   19.3010 C.3   1267  F6R1267     0.2175
      2  C2        18.4600    9.7530   20.0160 C.3   1267  F6R1267     0.2175
      3  C3        18.4840   10.9070   21.0240 C.3   1267  F6R1267     0.2175
      4  C4        17.2000   11.3540   21.6930 C.3   1267  F6R1267     0.2174
      5  C5        15.9400   10.5180   21.3320 C.3   1267  F6R1267     0.2147
      6  C6        15.4390    9.6130   22.4040 C.3   1267  F6R1267     0.1892
      7  O1        16.2030    9.5370   18.9830 O.3   1267  F6R1267    -0.2175
      8  O2        19.2360    9.6150   18.9730 O.3   1267  F6R1267    -0.2175
      9  O3        19.6600   11.3270   21.8080 O.3   1267  F6R1267    -0.2175
     10  O4        17.3640   11.4650   23.0700 O.3   1267  F6R1267    -0.2175
     11  O5        14.8630   11.3260   20.9200 O.3   1267  F6R1267    -0.2176
     12  O6        15.1550    8.4130   22.1140 O.3   1267  F6R1267    -0.2674
     13  P         13.9450    7.7970   21.4560 P.3   1267  F6R1267     0.5327
     14  O1P       12.6850    8.2600   21.8850 O.3   1267  F6R1267    -0.1145
     15  O2P       14.2290    6.4370   22.0130 O.3   1267  F6R1267    -0.1145
     16  O3P       14.2700    7.9400   20.0670 O.2   1267  F6R1267    -0.2224
     17  C2        21.9570   -5.8930   24.1300 C.2   1268  F6R1268     0.2427
     18  C3        20.9910   -6.2390   25.2380 C.3   1268  F6R1268     0.2486
     19  C4        21.5130   -7.2600   26.2510 C.3   1268  F6R1268     0.2224
     20  C5        21.1420   -6.9650   27.7160 C.3   1268  F6R1268     0.2151
     21  C6        21.7090   -8.0300   28.6530 C.3   1268  F6R1268     0.1892
     22  O1        23.8920   -6.6950   22.6780 O.3   1268  F6R1268     0.0000
     23  O2        21.5370   -5.2180   23.2030 O.2   1268  F6R1268    -0.2854
     24  O3        19.8770   -5.4950   25.7470 O.3   1268  F6R1268    -0.2118
     25  O4        21.0360   -8.5600   25.8800 O.3   1268  F6R1268    -0.2171
     26  O5        21.6770   -5.6940   28.1060 O.3   1268  F6R1268    -0.2176
     27  O6        22.9340   -8.1240   28.7210 O.3   1268  F6R1268    -0.2674
     28  P         23.5520   -9.4730   29.4480 P.3   1268  F6R1268     0.5327
     29  O1P       24.9900   -9.2650   29.4550 O.3   1268  F6R1268    -0.1145
     30  O2P       22.9890   -9.5110   30.8300 O.3   1268  F6R1268    -0.1145
     31  O3P       23.2460  -10.6030   28.5740 O.2   1268  F6R1268    -0.2224
@<TRIPOS>BOND
     1     1     7    1
     2     1     2    1
     3     2     8    1
     4     2     3    1
     5     3     4    1
     6     3     9    1
     7     4     5    1
     8     4    10    1
     9     5    11    1
    10     5     6    1
    11     6    12    1
    12    12    13    1
    13    13    16    2
    14    13    14    1
    15    13    15    1
    16    17    23    2
    17    17    18    1
    18    18    24    1
    19    18    19    1
    20    19    25    1
    21    19    20    1
    22    20    26    1
    23    20    21    1
    24    21    27    1
    25    27    28    1
    26    28    31    2
    27    28    29    1
    28    28    30    1
