@<TRIPOS>MOLECULE
5ees_NAP_1_ligand
   73    77     1     0     0
SMALL
NO_CHARGES


@<TRIPOS>ATOM
     1 PA          41.2430    24.2970     9.8960 P.3          1 NAP302   0.0000
     2 O1A         40.4900    25.0420     8.8220 O.co2        1 NAP302   0.0000
     3 O2A         40.6920    23.9620    11.2300 O.co2        1 NAP302  -1.0000
     4 O5B         41.7140    22.9390     9.1990 O.3          1 NAP302   0.0000
     5 C5B         42.2210    21.8370     9.9350 C.3          1 NAP302   0.0000
     6 C4B         41.7850    20.6530     9.1180 C.3          1 NAP302   0.0000
     7 O4B         42.4710    19.4450     9.4910 O.3          1 NAP302   0.0000
     8 C3B         40.2680    20.4100     9.2470 C.3          1 NAP302   0.0000
     9 O3B         39.7470    20.1890     7.9390 O.3          1 NAP302   0.0000
    10 C2B         40.2870    19.1950    10.1500 C.3          1 NAP302   0.0000
    11 O2B         39.1170    18.3950    10.2000 O.3          1 NAP302   0.0000
    12 C1B         41.4740    18.4170     9.6380 C.3          1 NAP302   0.0000
    13 N9A         41.9810    17.3940    10.5770 N.pl3        1 NAP302   0.0000
    14 C8A         41.9810    17.3150    11.9620 C.2          1 NAP302   0.0000
    15 N7A         42.6290    16.1360    12.3370 N.2          1 NAP302   0.0000
    16 C5A         43.0410    15.4840    11.1990 C.ar         1 NAP302   0.0000
    17 C6A         43.7470    14.2510    10.8000 C.ar         1 NAP302   0.0000
    18 N6A         44.1890    13.4260    11.7450 N.pl3        1 NAP302   0.0000
    19 N1A         44.0300    13.9550     9.5120 N.ar         1 NAP302   0.0000
    20 C2A         43.5690    14.7890     8.5700 C.ar         1 NAP302   0.0000
    21 N3A         42.8720    15.9110     8.8380 N.ar         1 NAP302   0.0000
    22 C4A         42.6070    16.3130    10.0720 C.ar         1 NAP302   0.0000
    23 O3          42.5650    25.1700    10.2490 O.3          1 NAP302   0.0000
    24 PN          43.5020    25.9820     9.2260 P.3          1 NAP302   0.0000
    25 O1N         43.5080    25.2930     7.9030 O.co2        1 NAP302   0.0000
    26 O2N         43.2290    27.4450     9.3280 O.co2        1 NAP302  -1.0000
    27 O5D         44.9000    25.7760    10.0190 O.3          1 NAP302   0.0000
    28 C5D         45.4890    24.4930    10.0860 C.3          1 NAP302   0.0000
    29 C4D         46.8130    24.5790    10.7840 C.3          1 NAP302   0.0000
    30 O4D         47.7830    25.3350    10.0210 O.3          1 NAP302   0.0000
    31 C3D         46.6640    25.2680    12.1030 C.3          1 NAP302   0.0000
    32 O3D         47.5650    24.6930    13.0490 O.3          1 NAP302   0.0000
    33 C2D         47.1440    26.6580    11.8560 C.3          1 NAP302   0.0000
    34 O2D         47.6850    27.1270    13.0550 O.3          1 NAP302   0.0000
    35 C1D         48.2440    26.4150    10.8530 C.3          1 NAP302   0.0000
    36 N1N         48.5550    27.4900     9.9350 N.ar         1 NAP302   1.0000
    37 C2N         49.8670    27.6770     9.6610 C.ar         1 NAP302   0.0000
    38 C3N         50.2990    28.6580     8.7610 C.ar         1 NAP302   0.0000
    39 C7N         51.7520    28.7570     8.4660 C.2          1 NAP302   0.0000
    40 O7N         52.2867    29.6786     7.7764 O.2          1 NAP302   0.0000
    41 N7N         52.5196    27.7909     8.8253 N.am         1 NAP302   0.0000
    42 C4N         49.3130    29.4440     8.0960 C.ar         1 NAP302   0.0000
    43 C5N         47.9580    29.2230     8.4000 C.ar         1 NAP302   0.0000
    44 C6N         47.5890    28.2150     9.2960 C.ar         1 NAP302   0.0000
    45 P2B         38.3010    18.3690    11.6510 P.3          1 NAP302   0.0000
    46 O1X         37.3910    19.5840    11.6140 O.co2        1 NAP302   0.0000
    47 O2X         39.2960    18.3990    12.8080 O.co2        1 NAP302  -1.0000
    48 O3X         37.4880    17.0960    11.7090 O.co2        1 NAP302  -1.0000
    49 H5B1        41.8251    21.8054    10.8528 H            1 NAP302   0.0000
    50 H5B2        43.2178    21.8788    10.0032 H            1 NAP302   0.0000
    51 H4B         41.9897    20.8441     8.1580 H            1 NAP302   0.0000
    52 H3B         39.8146    21.1830     9.6907 H            1 NAP302   0.0000
    53 H5          38.7616    20.0284     7.9954 H            1 NAP302   0.0000
    54 H2B         40.4937    19.5016    11.0791 H            1 NAP302   0.0000
    55 H1B         41.2648    18.0042     8.7515 H            1 NAP302   0.0000
    56 H8A         41.5843    17.9881    12.5861 H            1 NAP302   0.0000
    57 H6A1        44.6693    12.5864    11.4911 H            1 NAP302   0.0000
    58 H6A2        44.0410    13.6453    12.7094 H            1 NAP302   0.0000
    59 H2A         43.7528    14.5660     7.6127 H            1 NAP302   0.0000
    60 H5D1        45.6240    24.1407     9.1599 H            1 NAP302   0.0000
    61 H5D2        44.8859    23.8767    10.5924 H            1 NAP302   0.0000
    62 H4D         47.1639    23.6549    10.9353 H            1 NAP302   0.0000
    63 H3D         45.7188    25.2512    12.4289 H            1 NAP302   0.0000
    64 H16         47.3587    23.7205    13.1573 H            1 NAP302   0.0000
    65 H2D         46.4249    27.2548    11.5000 H            1 NAP302   0.0000
    66 H18         46.9694    27.5750    13.5909 H            1 NAP302   0.0000
    67 H1D         49.0758    26.1348    11.3321 H            1 NAP302   0.0000
    68 H2N         50.5459    27.0989    10.1136 H            1 NAP302   0.0000
    69 H7N1        53.4596    27.7468     8.4871 H            1 NAP302   0.0000
    70 H7N2        52.1768    27.0833     9.4432 H            1 NAP302   0.0000
    71 H4N         49.5794    30.1381     7.4272 H            1 NAP302   0.0000
    72 H5N         47.2539    29.7902     7.9727 H            1 NAP302   0.0000
    73 H6N         46.6224    28.0255     9.4684 H            1 NAP302   0.0000
@<TRIPOS>BOND
     1    1    2      ar
     2    1    3      ar
     3    1    4       1
     4    1   23       1
     5    4    5       1
     6    5    6       1
     7    6    7       1
     8    6    8       1
     9    7   12       1
    10    8    9       1
    11    8   10       1
    12   10   11       1
    13   10   12       1
    14   11   45       1
    15   12   13       1
    16   13   14       1
    17   13   22       1
    18   14   15       2
    19   15   16       1
    20   16   17      ar
    21   16   22      ar
    22   17   18       1
    23   17   19      ar
    24   19   20      ar
    25   20   21      ar
    26   21   22      ar
    27   23   24       1
    28   24   25      ar
    29   24   26      ar
    30   24   27       1
    31   27   28       1
    32   28   29       1
    33   29   30       1
    34   29   31       1
    35   30   35       1
    36   31   32       1
    37   31   33       1
    38   33   34       1
    39   33   35       1
    40   35   36       1
    41   36   37      ar
    42   36   44      ar
    43   37   38      ar
    44   38   39       1
    45   38   42      ar
    46   39   40       2
    47   39   41      am
    48   42   43      ar
    49   43   44      ar
    50   45   46      ar
    51   45   47      ar
    52   45   48      ar
    53   43   72       1
    54    5   49       1
    55    5   50       1
    56    6   51       1
    57    8   52       1
    58    9   53       1
    59   10   54       1
    60   12   55       1
    61   14   56       1
    62   18   57       1
    63   18   58       1
    64   20   59       1
    65   44   73       1
    66   28   60       1
    67   28   61       1
    68   29   62       1
    69   31   63       1
    70   32   64       1
    71   33   65       1
    72   34   66       1
    73   35   67       1
    74   37   68       1
    75   41   69       1
    76   41   70       1
    77   42   71       1
@<TRIPOS>SUBSTRUCTURE
     1 NAP302      1 GROUP             4 A     NAP     0 **** NAP A 302
