@<TRIPOS>MOLECULE
2bt4_CA2_11_ligand
   43    44     1     0     0
SMALL
NO_CHARGES


@<TRIPOS>ATOM
     1 O2         -26.3000    -1.6160    10.3920 O.co2        1 CA22160   0.0000
     2 C7         -25.2220    -0.9600    10.5500 C.2          1 CA22160   0.0000
     3 O1         -25.1030     0.2710    10.3210 O.co2        1 CA22160  -1.0000
     4 C1         -24.0070    -1.7510    10.9580 C.3          1 CA22160   0.0000
     5 O3         -24.1780    -3.0420    10.3610 O.3          1 CA22160   0.0000
     6 C2         -24.1270    -1.8420    12.4800 C.3          1 CA22160   0.0000
     7 C3         -22.8470    -2.3650    13.1340 C.3          1 CA22160   0.0000
     8 C4         -21.5720    -1.8270    12.4830 C.3          1 CA22160   0.0000
     9 O4         -20.4330    -2.6100    12.9330 O.3          1 CA22160   0.0000
    10 C5         -21.4760    -1.8830    10.9710 C.3          1 CA22160   0.0000
    11 O5         -20.2210    -1.2600    10.5570 O.3          1 CA22160   0.0000
    12 C6         -22.6880    -1.1170    10.4590 C.3          1 CA22160   0.0000
    13 C8         -22.9340    -2.0240    14.6160 C.3          1 CA22160   0.0000
    14 C9         -24.0370    -2.8420    15.3050 C.3          1 CA22160   0.0000
    15 C10        -24.4150    -2.2230    16.6570 C.3          1 CA22160   0.0000
    16 O11        -25.4430    -1.2860    16.3420 O.3          1 CA22160   0.0000
    17 C12        -26.0250    -0.5220    17.3250 C.ar         1 CA22160   0.0000
    18 C17        -25.9920    -0.9570    18.6420 C.ar         1 CA22160   0.0000
    19 C16        -26.5990    -0.1690    19.6350 C.ar         1 CA22160   0.0000
    20 C15        -27.1760     1.0460    19.3240 C.ar         1 CA22160   0.0000
    21 C14        -27.1770     1.4950    18.0170 C.ar         1 CA22160   0.0000
    22 C13        -26.5970     0.7040    17.0210 C.ar         1 CA22160   0.0000
    23 H1         -25.0194    -3.4592    10.7044 H            1 CA22160   0.0000
    24 H2         -24.8795    -2.4603    12.7067 H            1 CA22160   0.0000
    25 H3         -24.3237    -0.9308    12.8420 H            1 CA22160   0.0000
    26 H4         -22.8410    -3.3612    13.0467 H            1 CA22160   0.0000
    27 H5         -21.4416    -0.8795    12.7749 H            1 CA22160   0.0000
    28 H6         -20.3542    -2.5426    13.9276 H            1 CA22160   0.0000
    29 H7         -21.5100    -2.8321    10.6579 H            1 CA22160   0.0000
    30 H8         -19.6648    -1.9276    10.0620 H            1 CA22160   0.0000
    31 H9         -22.6374    -0.1727    10.7841 H            1 CA22160   0.0000
    32 H10        -22.6803    -1.1262     9.4591 H            1 CA22160   0.0000
    33 H11        -23.1381    -1.0502    14.7161 H            1 CA22160   0.0000
    34 H12        -22.0565    -2.2271    15.0504 H            1 CA22160   0.0000
    35 H13        -23.7088    -3.7750    15.4525 H            1 CA22160   0.0000
    36 H14        -24.8454    -2.8621    14.7168 H            1 CA22160   0.0000
    37 H15        -23.6286    -1.7612    17.0672 H            1 CA22160   0.0000
    38 H16        -24.7547    -2.9236    17.2845 H            1 CA22160   0.0000
    39 H17        -25.5432    -1.8180    18.8811 H            1 CA22160   0.0000
    40 H18        -26.6131    -0.4933    20.5809 H            1 CA22160   0.0000
    41 H19        -27.5929     1.6008    20.0440 H            1 CA22160   0.0000
    42 H20        -27.5884     2.3767    17.7861 H            1 CA22160   0.0000
    43 H21        -26.5946     1.0273    16.0747 H            1 CA22160   0.0000
@<TRIPOS>BOND
     1    1    2      ar
     2    2    3      ar
     3    2    4       1
     4    4    5       1
     5    4    6       1
     6    4   12       1
     7    6    7       1
     8    7    8       1
     9    7   13       1
    10    8    9       1
    11    8   10       1
    12   10   11       1
    13   10   12       1
    14   13   14       1
    15   14   15       1
    16   15   16       1
    17   16   17       1
    18   17   18      ar
    19   17   22      ar
    20   18   19      ar
    21   19   20      ar
    22   20   21      ar
    23   21   22      ar
    24   22   43       1
    25    5   23       1
    26    6   24       1
    27    6   25       1
    28    7   26       1
    29    8   27       1
    30    9   28       1
    31   10   29       1
    32   11   30       1
    33   12   31       1
    34   12   32       1
    35   13   33       1
    36   13   34       1
    37   14   35       1
    38   14   36       1
    39   15   37       1
    40   15   38       1
    41   18   39       1
    42   19   40       1
    43   20   41       1
    44   21   42       1
@<TRIPOS>SUBSTRUCTURE
     1 CA22160     1 GROUP             4 K     CA2     0 **** CA2 K2160
