@<TRIPOS>MOLECULE
4fdn_FAD_1_ligand
   84    89     1     0     0
SMALL
NO_CHARGES


@<TRIPOS>ATOM
     1 PA          37.8800    -0.8590     4.9400 P.3          1 FAD900   0.0000
     2 O1A         38.1830    -2.2980     5.2360 O.co2        1 FAD900   0.0000
     3 O2A         37.0530    -0.0520     5.8990 O.co2        1 FAD900  -1.0000
     4 O5B         37.2840    -0.7660     3.4520 O.3          1 FAD900   0.0000
     5 C5B         36.9530     0.5280     2.9370 C.3          1 FAD900   0.0000
     6 C4B         36.7050     0.4720     1.4350 C.3          1 FAD900   0.0000
     7 O4B         37.9700     0.1980     0.8190 O.3          1 FAD900   0.0000
     8 C3B         35.7490    -0.6400     0.9970 C.3          1 FAD900   0.0000
     9 O3B         34.9790    -0.2300    -0.1470 O.3          1 FAD900   0.0000
    10 C2B         36.6880    -1.7300     0.5370 C.3          1 FAD900   0.0000
    11 O2B         36.0650    -2.5240    -0.4710 O.3          1 FAD900   0.0000
    12 C1B         37.8440    -0.9170    -0.0350 C.3          1 FAD900   0.0000
    13 N9A         39.1170    -1.6550    -0.0460 N.pl3        1 FAD900   0.0000
    14 C8A         39.8590    -1.9980     1.0130 C.2          1 FAD900   0.0000
    15 N7A         40.9410    -2.6850     0.5780 N.2          1 FAD900   0.0000
    16 C5A         40.8590    -2.7690    -0.7760 C.ar         1 FAD900   0.0000
    17 C6A         41.6500    -3.3400    -1.7650 C.ar         1 FAD900   0.0000
    18 N6A         42.7870    -3.9850    -1.4460 N.pl3        1 FAD900   0.0000
    19 N1A         41.2760    -3.2540    -3.0550 N.ar         1 FAD900   0.0000
    20 C2A         40.1400    -2.6210    -3.3920 C.ar         1 FAD900   0.0000
    21 N3A         39.3550    -2.0460    -2.4700 N.ar         1 FAD900   0.0000
    22 C4A         39.6990    -2.1140    -1.1580 C.ar         1 FAD900   0.0000
    23 N1          39.0700     9.0910     6.4720 N.2          1 FAD900   0.0000
    24 C2          39.6070    10.2050     5.9390 C.2          1 FAD900   0.0000
    25 O2          39.4950    10.3770     4.6020 O.2          1 FAD900   0.0000
    26 N3          40.2330    11.1360     6.7010 N.pl3        1 FAD900   0.0000
    27 C4          40.3250    10.9470     8.0370 C.2          1 FAD900   0.0000
    28 O4          40.9590    11.8360     8.8300 O.2          1 FAD900   0.0000
    29 C4X         39.7390     9.7330     8.6410 C.2          1 FAD900   0.0000
    30 N5          39.8330     9.5150     9.9680 N.2          1 FAD900   0.0000
    31 C5X         39.3130     8.4040    10.5340 C.ar         1 FAD900   0.0000
    32 C6          39.4160     8.1980    11.9020 C.ar         1 FAD900   0.0000
    33 C7          38.8850     7.0570    12.4850 C.ar         1 FAD900   0.0000
    34 C7M         38.9970     6.8480    13.9760 C.3          1 FAD900   0.0000
    35 C8          38.1940     6.0500    11.6420 C.ar         1 FAD900   0.0000
    36 C8M         37.6040     4.8100    12.2720 C.3          1 FAD900   0.0000
    37 C9          38.0900     6.2560    10.2680 C.ar         1 FAD900   0.0000
    38 C9A         38.6310     7.4000     9.6830 C.ar         1 FAD900   0.0000
    39 N10         38.5440     7.6510     8.2970 N.pl3        1 FAD900   0.0000
    40 C10         39.1160     8.8330     7.7950 C.2          1 FAD900   0.0000
    41 C1'         37.9130     6.7070     7.3510 C.3          1 FAD900   0.0000
    42 C2'         38.9800     5.7150     6.8260 C.3          1 FAD900   0.0000
    43 O2'         40.2730     6.3410     6.6990 O.3          1 FAD900   0.0000
    44 C3'         38.6100     5.0930     5.4820 C.3          1 FAD900   0.0000
    45 O3'         37.3300     4.4980     5.6190 O.3          1 FAD900   0.0000
    46 C4'         39.5760     4.0100     4.9940 C.3          1 FAD900   0.0000
    47 O4'         39.1670     3.5760     3.6910 O.3          1 FAD900   0.0000
    48 C5'         39.5700     2.7770     5.8930 C.3          1 FAD900   0.0000
    49 O5'         40.5790     1.8630     5.4320 O.3          1 FAD900   0.0000
    50 P           40.4370     0.2860     5.6840 P.3          1 FAD900   0.0000
    51 O1P         41.6840    -0.4090     5.1850 O.co2        1 FAD900   0.0000
    52 O2P         40.0390     0.1110     7.1290 O.co2        1 FAD900  -1.0000
    53 O3P         39.2630    -0.0640     4.6430 O.3          1 FAD900   0.0000
    54 H5B1        37.7094     1.1559     3.1202 H            1 FAD900   0.0000
    55 H5B2        36.1268     0.8595     3.3925 H            1 FAD900   0.0000
    56 H4B         36.3608     1.3557     1.1178 H            1 FAD900   0.0000
    57 H3B         35.1645    -0.9454     1.7487 H            1 FAD900   0.0000
    58 H5          35.1572    -0.8524    -0.9092 H            1 FAD900   0.0000
    59 H2B         36.9895    -2.2943     1.3055 H            1 FAD900   0.0000
    60 H7          36.0113    -3.4734    -0.1616 H            1 FAD900   0.0000
    61 H1B         37.6198    -0.6124    -0.9607 H            1 FAD900   0.0000
    62 H8A         39.6492    -1.7827     1.9668 H            1 FAD900   0.0000
    63 H6A1        43.3494    -4.3926    -2.1655 H            1 FAD900   0.0000
    64 H6A2        43.0696    -4.0568    -0.4895 H            1 FAD900   0.0000
    65 H2A         39.8733    -2.5777    -4.3548 H            1 FAD900   0.0000
    66 H13         40.6229    11.9545     6.2790 H            1 FAD900   0.0000
    67 H14         39.8769     8.8778    12.4725 H            1 FAD900   0.0000
    68 H7M1        38.5643     5.9814    14.2245 H            1 FAD900   0.0000
    69 H7M2        39.9618     6.8261    14.2380 H            1 FAD900   0.0000
    70 H7M3        38.5390     7.5981    14.4531 H            1 FAD900   0.0000
    71 H8M1        37.1799     4.2458    11.5636 H            1 FAD900   0.0000
    72 H8M2        38.3280     4.2890    12.7241 H            1 FAD900   0.0000
    73 H8M3        36.9135     5.0745    12.9453 H            1 FAD900   0.0000
    74 H21         37.6244     5.5791     9.6979 H            1 FAD900   0.0000
    75 H1'1        37.5231     7.2150     6.5829 H            1 FAD900   0.0000
    76 H1'2        37.1881     6.2009     7.8183 H            1 FAD900   0.0000
    77 H2'         39.0632     4.9745     7.4929 H            1 FAD900   0.0000
    78 H25         40.1543     7.3129     6.4959 H            1 FAD900   0.0000
    79 H3'         38.5592     5.8162     4.7932 H            1 FAD900   0.0000
    80 H27         36.8548     4.5233     4.7395 H            1 FAD900   0.0000
    81 H4'         40.5020     4.3846     4.9463 H            1 FAD900   0.0000
    82 H29         38.3510     4.0822     3.4120 H            1 FAD900   0.0000
    83 H5'1        38.6734     2.3361     5.8528 H            1 FAD900   0.0000
    84 H5'2        39.7666     3.0472     6.8355 H            1 FAD900   0.0000
@<TRIPOS>BOND
     1    1    2      ar
     2    1    3      ar
     3    1    4       1
     4    1   53       1
     5    4    5       1
     6    5    6       1
     7    6    7       1
     8    6    8       1
     9    7   12       1
    10    8    9       1
    11    8   10       1
    12   10   11       1
    13   10   12       1
    14   12   13       1
    15   13   14       1
    16   13   22       1
    17   14   15       2
    18   15   16       1
    19   16   17      ar
    20   16   22      ar
    21   17   18       1
    22   17   19      ar
    23   19   20      ar
    24   20   21      ar
    25   21   22      ar
    26   23   24       1
    27   23   40       2
    28   24   25       2
    29   24   26       1
    30   26   27       1
    31   27   28       2
    32   27   29       1
    33   29   30       2
    34   29   40       1
    35   30   31       1
    36   31   32      ar
    37   31   38      ar
    38   32   33      ar
    39   33   34       1
    40   33   35      ar
    41   35   36       1
    42   35   37      ar
    43   37   38      ar
    44   38   39       1
    45   39   40       1
    46   39   41       1
    47   41   42       1
    48   42   43       1
    49   42   44       1
    50   44   45       1
    51   44   46       1
    52   46   47       1
    53   46   48       1
    54   48   49       1
    55   49   50       1
    56   50   51      ar
    57   50   52      ar
    58   50   53       1
    59   48   84       1
    60    5   54       1
    61    5   55       1
    62    6   56       1
    63    8   57       1
    64    9   58       1
    65   10   59       1
    66   11   60       1
    67   12   61       1
    68   14   62       1
    69   18   63       1
    70   18   64       1
    71   20   65       1
    72   26   66       1
    73   32   67       1
    74   34   68       1
    75   34   69       1
    76   34   70       1
    77   36   71       1
    78   36   72       1
    79   36   73       1
    80   37   74       1
    81   41   75       1
    82   41   76       1
    83   42   77       1
    84   43   78       1
    85   44   79       1
    86   45   80       1
    87   46   81       1
    88   47   82       1
    89   48   83       1
@<TRIPOS>SUBSTRUCTURE
     1 FAD900      1 GROUP             4 A     FAD     0 **** FAD A 900
