@<TRIPOS>MOLECULE
1t7i_017_1_ligand
   75    78     1     0     0
SMALL
NO_CHARGES


@<TRIPOS>ATOM
     1 N1          14.2640    35.0790    18.2090 N.pl3        1 017200   0.0000
     2 C2          15.2020    34.5280    17.3990 C.ar         1 017200   0.0000
     3 C3          16.1740    35.3600    16.7760 C.ar         1 017200   0.0000
     4 C4          17.1510    34.7290    15.9190 C.ar         1 017200   0.0000
     5 C5          16.9980    33.3590    15.6170 C.ar         1 017200   0.0000
     6 C6          15.9520    32.6460    16.1700 C.ar         1 017200   0.0000
     7 C7          15.0360    33.2380    17.0030 C.ar         1 017200   0.0000
     8 S8          18.1450    32.5350    14.6390 S.o2         1 017200   0.0000
     9 O9          18.7620    33.4740    13.7280 O.2          1 017200   0.0000
    10 O10         17.4350    31.4790    13.9960 O.2          1 017200   0.0000
    11 N11         19.3030    31.8980    15.5720 N.3          1 017200   0.0000
    12 C12         20.1540    32.8260    16.3550 C.3          1 017200   0.0000
    13 C13         21.6910    32.5190    16.3200 C.3          1 017200   0.0000
    14 C14         22.2960    32.4750    14.9190 C.3          1 017200   0.0000
    15 C15         22.3580    33.5430    17.2620 C.3          1 017200   0.0000
    16 C16         19.1300    30.5820    16.2080 C.3          1 017200   0.0000
    17 C17         20.0050    29.4990    15.5900 C.3          1 017200   0.0000
    18 O18         19.8760    28.3620    16.4650 O.3          1 017200   0.0000
    19 C19         19.6190    29.1070    14.1500 C.3          1 017200   0.0000
    20 N20         20.6690    28.2550    13.6490 N.am         1 017200   0.0000
    21 C21         21.5240    28.5860    12.7390 C.2          1 017200   0.0000
    22 O22         21.5940    29.6860    12.1860 O.2          1 017200   0.0000
    23 O23         22.4390    27.5690    12.4480 O.3          1 017200   0.0000
    24 C24         23.3170    27.7370    11.3470 C.3          1 017200   0.0000
    25 C25         24.6310    27.1570    11.7990 C.3          1 017200   0.0000
    26 O26         24.4760    25.7470    11.6970 O.3          1 017200   0.0000
    27 C27         23.5890    25.4730    10.5900 C.3          1 017200   0.0000
    28 O28         22.5860    24.5770    11.0290 O.3          1 017200   0.0000
    29 C29         21.2800    25.2380    11.0420 C.3          1 017200   0.0000
    30 C30         21.4160    26.4740    10.1520 C.3          1 017200   0.0000
    31 C31         22.9110    26.7920    10.2110 C.3          1 017200   0.0000
    32 C32         18.2760    28.4040    14.0490 C.3          1 017200   0.0000
    33 C33         18.1110    26.6940    12.1780 C.ar         1 017200   0.0000
    34 C34         17.9580    26.3900    10.8330 C.ar         1 017200   0.0000
    35 C35         17.6540    27.3720     9.9230 C.ar         1 017200   0.0000
    36 C36         17.5090    28.6670    10.3020 C.ar         1 017200   0.0000
    37 C37         17.7330    29.0180    11.6360 C.ar         1 017200   0.0000
    38 C38         17.9980    28.0180    12.6100 C.ar         1 017200   0.0000
    39 H1          13.5792    34.4978    18.6486 H            1 017200   0.0000
    40 H2          14.2572    36.0665    18.3666 H            1 017200   0.0000
    41 H3          16.1805    36.3486    16.9264 H            1 017200   0.0000
    42 H4          17.9187    35.2515    15.5480 H            1 017200   0.0000
    43 H5          15.8599    31.6731    15.9578 H            1 017200   0.0000
    44 H6          14.2428    32.7182    17.3202 H            1 017200   0.0000
    45 H7          19.8537    32.7903    17.3082 H            1 017200   0.0000
    46 H8          20.0154    33.7491    15.9962 H            1 017200   0.0000
    47 H9          21.8211    31.6147    16.7267 H            1 017200   0.0000
    48 H10         23.2736    32.2749    14.9842 H            1 017200   0.0000
    49 H11         21.8447    31.7613    14.3833 H            1 017200   0.0000
    50 H12         22.1660    33.3600    14.4718 H            1 017200   0.0000
    51 H13         23.3460    33.3892    17.2756 H            1 017200   0.0000
    52 H14         22.1692    34.4690    16.9351 H            1 017200   0.0000
    53 H15         21.9910    33.4344    18.1859 H            1 017200   0.0000
    54 H16         18.1726    30.3080    16.1168 H            1 017200   0.0000
    55 H17         19.3623    30.6641    17.1772 H            1 017200   0.0000
    56 H18         20.9562    29.8075    15.5978 H            1 017200   0.0000
    57 H19         18.9725    28.3720    16.8935 H            1 017200   0.0000
    58 H20         19.5876    29.9360    13.5916 H            1 017200   0.0000
    59 H21         20.7409    27.3359    14.0364 H            1 017200   0.0000
    60 H22         23.3932    28.6895    11.0521 H            1 017200   0.0000
    61 H23         24.8231    27.4205    12.7444 H            1 017200   0.0000
    62 H24         25.3740    27.4710    11.2079 H            1 017200   0.0000
    63 H25         24.0925    25.0937     9.8137 H            1 017200   0.0000
    64 H26         21.0375    25.5074    11.9740 H            1 017200   0.0000
    65 H27         20.5781    24.6253    10.6788 H            1 017200   0.0000
    66 H28         20.8742    27.2342    10.5105 H            1 017200   0.0000
    67 H29         21.1297    26.2733     9.2151 H            1 017200   0.0000
    68 H30         23.2427    27.1265     9.3289 H            1 017200   0.0000
    69 H31         17.5559    29.0182    14.3718 H            1 017200   0.0000
    70 H32         18.2903    27.5802    14.6157 H            1 017200   0.0000
    71 H33         18.3019    25.9667    12.8372 H            1 017200   0.0000
    72 H34         18.0703    25.4459    10.5232 H            1 017200   0.0000
    73 H35         17.5369    27.1278     8.9604 H            1 017200   0.0000
    74 H36         17.2447    29.3626     9.6339 H            1 017200   0.0000
    75 H37         17.7066    29.9802    11.9071 H            1 017200   0.0000
@<TRIPOS>BOND
     1    1    2       1
     2    2    3      ar
     3    2    7      ar
     4    3    4      ar
     5    4    5      ar
     6    5    6      ar
     7    5    8       1
     8    6    7      ar
     9    8    9       2
    10    8   10       2
    11    8   11       1
    12   11   12       1
    13   11   16       1
    14   12   13       1
    15   13   14       1
    16   13   15       1
    17   16   17       1
    18   17   18       1
    19   17   19       1
    20   19   20       1
    21   19   32       1
    22   20   21      am
    23   21   22       2
    24   21   23       1
    25   23   24       1
    26   24   25       1
    27   24   31       1
    28   25   26       1
    29   26   27       1
    30   27   28       1
    31   27   31       1
    32   28   29       1
    33   29   30       1
    34   30   31       1
    35   32   38       1
    36   33   34      ar
    37   33   38      ar
    38   34   35      ar
    39   35   36      ar
    40   36   37      ar
    41   37   38      ar
    42    1   39       1
    43    1   40       1
    44    3   41       1
    45    4   42       1
    46    6   43       1
    47    7   44       1
    48   12   45       1
    49   12   46       1
    50   13   47       1
    51   14   48       1
    52   14   49       1
    53   14   50       1
    54   15   51       1
    55   15   52       1
    56   15   53       1
    57   16   54       1
    58   16   55       1
    59   17   56       1
    60   18   57       1
    61   19   58       1
    62   20   59       1
    63   24   60       1
    64   25   61       1
    65   25   62       1
    66   27   63       1
    67   29   64       1
    68   29   65       1
    69   30   66       1
    70   30   67       1
    71   31   68       1
    72   32   69       1
    73   32   70       1
    74   33   71       1
    75   34   72       1
    76   35   73       1
    77   36   74       1
    78   37   75       1
@<TRIPOS>SUBSTRUCTURE
     1 017200      1 GROUP             4 A     017     0 **** 017 A 200
