@<TRIPOS>MOLECULE
1d0l_BLG_1_ligand
   63    64     1     0     0
SMALL
NO_CHARGES


@<TRIPOS>ATOM
     1 C1           7.5730    23.7940    13.4880 C.3          1 BLG401   0.0000
     2 C2           9.0640    24.0500    13.7740 C.3          1 BLG401   0.0000
     3 C3           9.2150    25.0660    14.9270 C.3          1 BLG401   0.0000
     4 C4           8.3440    26.3100    14.6710 C.3          1 BLG401   0.0000
     5 C5           6.8720    25.9170    14.3800 C.3          1 BLG401   0.0000
     6 O5           6.8570    25.0120    13.2780 O.3          1 BLG401   0.0000
     7 O1           7.4870    22.9790    12.3230 O.3          1 BLG401   0.0000
     8 N2           9.6960    22.7840    14.0940 N.am         1 BLG401   0.0000
     9 C7          10.6460    22.2620    13.3250 C.2          1 BLG401   0.0000
    10 O7          11.0740    22.8220    12.3140 O.2          1 BLG401   0.0000
    11 C8          11.2530    20.9350    13.7170 C.3          1 BLG401   0.0000
    12 O3          10.5510    25.4850    15.1350 O.3          1 BLG401   0.0000
    13 O4           8.4100    27.1340    15.8230 O.3          1 BLG401   0.0000
    14 S4           8.8950    28.6370    15.6410 S.o2         1 BLG401   0.0000
    15 O41         10.2760    28.6670    15.2100 O.co2        1 BLG401   0.0000
    16 O42          8.7130    29.3040    16.9220 O.co2        1 BLG401   0.0000
    17 O43          8.0780    29.2880    14.6160 O.co2        1 BLG401  -1.0000
    18 C6           5.8750    27.0530    14.0520 C.3          1 BLG401   0.0000
    19 O6           6.1490    27.6020    12.7690 O.3          1 BLG401   0.0000
    20 CA           6.5230    21.0780    11.4190 C.3          1 BLG401   0.0000
    21 CB           6.2340    22.3890    12.0940 C.3          1 BLG401   0.0000
    22 CG           5.4000    23.0840    11.0370 C.3          1 BLG401   0.0000
    23 CD           4.3980    21.9760    10.7490 C.3          1 BLG401   0.0000
    24 N            5.2280    20.7050    10.8650 N.4          1 BLG401   1.0000
    25 C9           7.0250    19.9890    12.3610 C.3          1 BLG401   0.0000
    26 O9           6.0220    19.6590    13.3090 O.3          1 BLG401   0.0000
    27 C10          3.7550    22.0640     9.3550 C.2          1 BLG401   0.0000
    28 O10          4.4220    21.7950     8.3520 O.2          1 BLG401   0.0000
    29 N3           2.4870    22.4670     9.2960 N.am         1 BLG401   0.0000
    30 C11          1.7320    22.6240     8.0540 C.3          1 BLG401   0.0000
    31 C12          0.3050    22.1230     8.1660 C.3          1 BLG401   0.0000
    32 S            0.1890    20.3060     8.2400 S.o2         1 BLG401   0.0000
    33 OS1         -0.7720    19.8250     7.2480 O.co2        1 BLG401   0.0000
    34 OS2          1.4680    19.6720     7.9210 O.co2        1 BLG401   0.0000
    35 OS3         -0.2250    19.8830     9.5790 O.co2        1 BLG401  -1.0000
    36 H1           7.1695    23.3050    14.2614 H            1 BLG401   0.0000
    37 H2           9.4914    24.4268    12.9522 H            1 BLG401   0.0000
    38 H3           8.8929    24.6303    15.7675 H            1 BLG401   0.0000
    39 H4           8.7107    26.8116    13.8874 H            1 BLG401   0.0000
    40 H5           6.5238    25.4282    15.1799 H            1 BLG401   0.0000
    41 H6           9.4091    22.2908    14.9153 H            1 BLG401   0.0000
    42 H7          11.9477    20.6751    13.0463 H            1 BLG401   0.0000
    43 H8          11.6750    21.0152    14.6200 H            1 BLG401   0.0000
    44 H9          10.5380    20.2364    13.7441 H            1 BLG401   0.0000
    45 H10         10.9933    24.8746    15.7921 H            1 BLG401   0.0000
    46 H11          5.9571    27.7722    14.7419 H            1 BLG401   0.0000
    47 H12          4.9445    26.6869    14.0613 H            1 BLG401   0.0000
    48 H13          6.7979    28.3573    12.8613 H            1 BLG401   0.0000
    49 HA           7.1812    21.2158    10.6789 H            1 BLG401   0.0000
    50 HB           5.7234    22.2628    12.9445 H            1 BLG401   0.0000
    51 HG1          5.9403    23.3190    10.2290 H            1 BLG401   0.0000
    52 HG2          4.9561    23.9068    11.3920 H            1 BLG401   0.0000
    53 HD           3.6844    21.9771    11.4495 H            1 BLG401   0.0000
    54 H19          4.7720    20.0534    11.4712 H            1 BLG401   0.0000
    55 H20          7.8382    20.3173    12.8415 H            1 BLG401   0.0000
    56 H21          7.2579    19.1745    11.8297 H            1 BLG401   0.0000
    57 H22          5.7845    18.6917    13.2200 H            1 BLG401   0.0000
    58 H23          2.0216    22.6755    10.1562 H            1 BLG401   0.0000
    59 H24          2.1951    22.1105     7.3316 H            1 BLG401   0.0000
    60 H25          1.7119    23.5943     7.8129 H            1 BLG401   0.0000
    61 H26         -0.2079    22.4425     7.3692 H            1 BLG401   0.0000
    62 H27         -0.1010    22.5019     8.9976 H            1 BLG401   0.0000
    63 H28          5.3487    20.2923     9.9622 H            1 BLG401   0.0000
@<TRIPOS>BOND
     1    1    2       1
     2    1    6       1
     3    1    7       1
     4    2    3       1
     5    2    8       1
     6    3    4       1
     7    3   12       1
     8    4    5       1
     9    4   13       1
    10    5    6       1
    11    5   18       1
    12    7   21       1
    13    8    9      am
    14    9   10       2
    15    9   11       1
    16   13   14       1
    17   14   15      ar
    18   14   16      ar
    19   14   17      ar
    20   18   19       1
    21   20   21       1
    22   20   24       1
    23   20   25       1
    24   21   22       1
    25   22   23       1
    26   23   24       1
    27   23   27       1
    28   25   26       1
    29   27   28       2
    30   27   29      am
    31   29   30       1
    32   30   31       1
    33   31   32       1
    34   32   33      ar
    35   32   34      ar
    36   32   35      ar
    37    1   36       1
    38    2   37       1
    39    3   38       1
    40    4   39       1
    41    5   40       1
    42    8   41       1
    43   11   42       1
    44   11   43       1
    45   11   44       1
    46   12   45       1
    47   24   63       1
    48   18   46       1
    49   18   47       1
    50   19   48       1
    51   20   49       1
    52   21   50       1
    53   22   51       1
    54   22   52       1
    55   23   53       1
    56   24   54       1
    57   25   55       1
    58   25   56       1
    59   26   57       1
    60   29   58       1
    61   30   59       1
    62   30   60       1
    63   31   61       1
    64   31   62       1
@<TRIPOS>SUBSTRUCTURE
     1 BLG401      1 GROUP             4 A     BLG     0 **** BLG A 401
