@<TRIPOS>MOLECULE
3sjz_GNP_1_ligand
   45    47     1     0     0
SMALL
NO_CHARGES


@<TRIPOS>ATOM
     1 PG         -75.0550    28.4980   -10.4200 P.3          1 GNP417   0.0000
     2 O1G        -75.8840    28.2860   -11.6720 O.co2        1 GNP417   0.0000
     3 O2G        -75.8980    28.5530    -9.1600 O.co2        1 GNP417  -1.0000
     4 O3G        -74.1720    29.7100   -10.6730 O.co2        1 GNP417  -1.0000
     5 N3B        -74.0580    27.2680   -10.2470 N.3          1 GNP417   0.0000
     6 PB         -73.0380    26.8280   -11.3780 P.3          1 GNP417   0.0000
     7 O1B        -73.6030    27.1350   -12.7130 O.co2        1 GNP417   0.0000
     8 O2B        -71.7530    27.4590   -10.9880 O.co2        1 GNP417  -1.0000
     9 O3A        -72.8600    25.3090   -11.2980 O.3          1 GNP417   0.0000
    10 PA         -72.1050    24.5000   -12.3620 P.3          1 GNP417   0.0000
    11 O1A        -72.9300    23.3090   -12.7210 O.co2        1 GNP417   0.0000
    12 O2A        -71.6500    25.3960   -13.4550 O.co2        1 GNP417  -1.0000
    13 O5'        -70.7850    23.9400   -11.6870 O.3          1 GNP417   0.0000
    14 C5'        -70.0480    22.8680   -12.2890 C.3          1 GNP417   0.0000
    15 C4'        -68.8220    22.4540   -11.4800 C.3          1 GNP417   0.0000
    16 O4'        -69.2530    21.7100   -10.3180 O.3          1 GNP417   0.0000
    17 C3'        -67.8820    21.4730   -12.1750 C.3          1 GNP417   0.0000
    18 O3'        -66.6090    21.4690   -11.5240 O.3          1 GNP417   0.0000
    19 C2'        -68.6300    20.1470   -12.0020 C.3          1 GNP417   0.0000
    20 O2'        -67.7850    19.0150   -12.1910 O.3          1 GNP417   0.0000
    21 C1'        -69.1320    20.3100   -10.5570 C.3          1 GNP417   0.0000
    22 N9         -70.4120    19.6830   -10.1820 N.pl3        1 GNP417   0.0000
    23 C8         -71.6790    20.1060   -10.5250 C.2          1 GNP417   0.0000
    24 N7         -72.6420    19.3660   -10.0330 N.2          1 GNP417   0.0000
    25 C5         -71.9760    18.3870    -9.3020 C.2          1 GNP417   0.0000
    26 C6         -72.4910    17.3010    -8.5470 C.2          1 GNP417   0.0000
    27 O6         -73.6760    16.9800    -8.3640 O.2          1 GNP417   0.0000
    28 N1         -71.4740    16.5420    -7.9660 N.pl3        1 GNP417   0.0000
    29 C2         -70.1240    16.7940    -8.0950 C.2          1 GNP417   0.0000
    30 N2         -69.2880    15.9510    -7.4570 N.pl3        1 GNP417   0.0000
    31 N3         -69.6350    17.8110    -8.8010 N.2          1 GNP417   0.0000
    32 C4         -70.6070    18.5680    -9.3780 C.2          1 GNP417   0.0000
    33 H3B        -73.5050    27.4712    -9.4390 H            1 GNP417   0.0000
    34 H5'1       -69.7463    23.1599   -13.1966 H            1 GNP417   0.0000
    35 H5'2       -70.6528    22.0766   -12.3773 H            1 GNP417   0.0000
    36 H4'        -68.3139    23.2663   -11.1938 H            1 GNP417   0.0000
    37 H3'        -67.7842    21.7013   -13.1437 H            1 GNP417   0.0000
    38 H6         -66.2126    22.3863   -11.5613 H            1 GNP417   0.0000
    39 H2'        -69.4054    20.1056   -12.6321 H            1 GNP417   0.0000
    40 H8         -67.4031    19.0347   -13.1150 H            1 GNP417   0.0000
    41 H1'        -68.4255    19.9544    -9.9451 H            1 GNP417   0.0000
    42 H10        -71.8480    20.9073   -11.0989 H            1 GNP417   0.0000
    43 H11        -71.7452    15.7541    -7.4131 H            1 GNP417   0.0000
    44 H12        -68.2991    16.0871    -7.5167 H            1 GNP417   0.0000
    45 H13        -69.6566    15.1894    -6.9240 H            1 GNP417   0.0000
@<TRIPOS>BOND
     1    1    2      ar
     2    1    3      ar
     3    1    4      ar
     4    1    5       1
     5    5    6       1
     6    6    7      ar
     7    6    8      ar
     8    6    9       1
     9    9   10       1
    10   10   11      ar
    11   10   12      ar
    12   10   13       1
    13   13   14       1
    14   14   15       1
    15   15   16       1
    16   15   17       1
    17   16   21       1
    18   17   18       1
    19   17   19       1
    20   19   20       1
    21   19   21       1
    22   21   22       1
    23   22   23       1
    24   22   32       1
    25   23   24       2
    26   24   25       1
    27   25   26       1
    28   25   32       2
    29   26   27       2
    30   26   28       1
    31   28   29       1
    32   29   30       1
    33   29   31       2
    34   31   32       1
    35   30   45       1
    36   30   44       1
    37    5   33       1
    38   28   43       1
    39   23   42       1
    40   14   34       1
    41   14   35       1
    42   15   36       1
    43   17   37       1
    44   18   38       1
    45   19   39       1
    46   20   40       1
    47   21   41       1
@<TRIPOS>SUBSTRUCTURE
     1 GNP417      1 GROUP             4 A     GNP     0 **** GNP A 417
