@<TRIPOS>MOLECULE
3ig8_ADP_1_ligand
   39    41     1     0     0
SMALL
NO_CHARGES


@<TRIPOS>ATOM
     1 PB          32.2560    -8.2100    17.1400 P.3          1 ADP694   0.0000
     2 O1B         30.8690    -8.6410    17.5570 O.co2        1 ADP694   0.0000
     3 O2B         33.3200    -8.4570    18.2110 O.co2        1 ADP694  -1.0000
     4 O3B         32.3270    -6.8370    16.4390 O.co2        1 ADP694  -1.0000
     5 PA          33.6270    -9.5200    14.9150 P.3          1 ADP694   0.0000
     6 O1A         32.8950   -10.0970    13.7130 O.co2        1 ADP694   0.0000
     7 O2A         34.4650    -8.2590    14.7680 O.co2        1 ADP694  -1.0000
     8 O3A         32.4700    -9.3820    16.0440 O.3          1 ADP694   0.0000
     9 O5'         34.6630   -10.6280    15.4600 O.3          1 ADP694   0.0000
    10 C5'         34.4560   -11.3340    16.6720 C.3          1 ADP694   0.0000
    11 C4'         35.8140   -11.7900    17.1920 C.3          1 ADP694   0.0000
    12 O4'         35.6010   -13.1540    17.5470 O.3          1 ADP694   0.0000
    13 C3'         36.9940   -11.7850    16.2030 C.3          1 ADP694   0.0000
    14 O3'         38.2050   -11.2900    16.8230 O.3          1 ADP694   0.0000
    15 C2'         37.0970   -13.2630    15.8150 C.3          1 ADP694   0.0000
    16 O2'         38.3620   -13.6950    15.2970 O.3          1 ADP694   0.0000
    17 C1'         36.7110   -13.9320    17.1290 C.3          1 ADP694   0.0000
    18 N9          36.2080   -15.2990    17.0230 N.pl3        1 ADP694   0.0000
    19 C8          35.7210   -15.8740    15.9150 C.2          1 ADP694   0.0000
    20 N7          35.3390   -17.1440    16.1850 N.2          1 ADP694   0.0000
    21 C5          35.5840   -17.3860    17.4980 C.ar         1 ADP694   0.0000
    22 C6          35.4140   -18.5140    18.4400 C.ar         1 ADP694   0.0000
    23 N6          34.8930   -19.6960    18.0500 N.pl3        1 ADP694   0.0000
    24 N1          35.7840   -18.3280    19.7140 N.ar         1 ADP694   0.0000
    25 C2          36.2820   -17.1660    20.1290 C.ar         1 ADP694   0.0000
    26 N3          36.4700   -16.1140    19.3300 N.ar         1 ADP694   0.0000
    27 C4          36.1460   -16.1510    18.0350 C.ar         1 ADP694   0.0000
    28 H5'1        33.8723   -12.1288    16.5059 H            1 ADP694   0.0000
    29 H5'2        34.0199   -10.7346    17.3432 H            1 ADP694   0.0000
    30 H4'         36.0561   -11.2640    18.0073 H            1 ADP694   0.0000
    31 H3'         36.7680   -11.2333    15.4002 H            1 ADP694   0.0000
    32 H5          38.7078   -12.0533    17.2286 H            1 ADP694   0.0000
    33 H2'         36.3903   -13.4636    15.1365 H            1 ADP694   0.0000
    34 H7          38.8065   -12.9336    14.8251 H            1 ADP694   0.0000
    35 H1'         37.4575   -13.8757    17.7920 H            1 ADP694   0.0000
    36 H9          35.6503   -15.4307    15.0214 H            1 ADP694   0.0000
    37 H10         34.7908   -20.4397    18.7107 H            1 ADP694   0.0000
    38 H11         34.6091   -19.8283    17.1003 H            1 ADP694   0.0000
    39 H12         36.5292   -17.0761    21.0938 H            1 ADP694   0.0000
@<TRIPOS>BOND
     1    1    2      ar
     2    1    3      ar
     3    1    4      ar
     4    1    8       1
     5    5    6      ar
     6    5    7      ar
     7    5    8       1
     8    5    9       1
     9    9   10       1
    10   10   11       1
    11   11   12       1
    12   11   13       1
    13   12   17       1
    14   13   14       1
    15   13   15       1
    16   15   16       1
    17   15   17       1
    18   17   18       1
    19   18   19       1
    20   18   27       1
    21   19   20       2
    22   20   21       1
    23   21   22      ar
    24   21   27      ar
    25   22   23       1
    26   22   24      ar
    27   24   25      ar
    28   25   26      ar
    29   26   27      ar
    30   25   39       1
    31   23   38       1
    32   23   37       1
    33   10   28       1
    34   10   29       1
    35   11   30       1
    36   13   31       1
    37   14   32       1
    38   15   33       1
    39   16   34       1
    40   17   35       1
    41   19   36       1
@<TRIPOS>SUBSTRUCTURE
     1 ADP694      1 GROUP             4 A     ADP     0 **** ADP A 694
