@<TRIPOS>MOLECULE
2pla_NAD_2_ligand
   70    74     1     0     0
SMALL
NO_CHARGES


@<TRIPOS>ATOM
     1 PA          69.5140   -73.0020    -2.2690 P.3          1 NAD401   0.0000
     2 O1A         68.0950   -72.8110    -2.5930 O.co2        1 NAD401   0.0000
     3 O2A         70.1830   -71.6930    -2.2470 O.co2        1 NAD401  -1.0000
     4 O5B         70.1940   -73.7920    -3.4930 O.3          1 NAD401   0.0000
     5 C5B         69.5670   -74.7190    -4.3570 C.3          1 NAD401   0.0000
     6 C4B         70.3390   -76.0300    -4.2150 C.3          1 NAD401   0.0000
     7 O4B         69.4510   -77.1230    -4.3110 O.3          1 NAD401   0.0000
     8 C3B         71.4350   -76.2630    -5.2580 C.3          1 NAD401   0.0000
     9 O3B         72.6950   -75.9020    -4.7430 O.3          1 NAD401   0.0000
    10 C2B         71.3430   -77.7540    -5.5960 C.3          1 NAD401   0.0000
    11 O2B         72.4200   -78.5720    -5.1760 O.3          1 NAD401   0.0000
    12 C1B         70.1130   -78.2490    -4.8580 C.3          1 NAD401   0.0000
    13 N9A         69.2590   -78.9370    -5.8220 N.pl3        1 NAD401   0.0000
    14 C8A         68.6040   -78.3580    -6.8770 C.2          1 NAD401   0.0000
    15 N7A         67.9270   -79.3330    -7.5170 N.2          1 NAD401   0.0000
    16 C5A         68.1480   -80.5070    -6.8770 C.ar         1 NAD401   0.0000
    17 C6A         67.6900   -81.7920    -7.1270 C.ar         1 NAD401   0.0000
    18 N6A         67.0890   -82.0360    -8.2970 N.pl3        1 NAD401   0.0000
    19 N1A         68.0870   -82.8170    -6.2810 N.ar         1 NAD401   0.0000
    20 C2A         68.9360   -82.5590    -5.2070 C.ar         1 NAD401   0.0000
    21 N3A         69.3850   -81.2700    -4.9640 N.ar         1 NAD401   0.0000
    22 C4A         68.9890   -80.2730    -5.7990 C.ar         1 NAD401   0.0000
    23 O3          69.7640   -73.9080    -0.9770 O.3          1 NAD401   0.0000
    24 PN          70.3610   -73.3790     0.4340 P.3          1 NAD401   0.0000
    25 O1N         70.3610   -71.9010     0.4760 O.co2        1 NAD401   0.0000
    26 O2N         71.6240   -74.0630     0.7940 O.co2        1 NAD401  -1.0000
    27 O5D         69.2110   -73.9640     1.4160 O.3          1 NAD401   0.0000
    28 C5D         69.4360   -74.8890     2.4630 C.3          1 NAD401   0.0000
    29 C4D         68.3750   -74.7920     3.5840 C.3          1 NAD401   0.0000
    30 O4D         68.7290   -73.8110     4.5480 O.3          1 NAD401   0.0000
    31 C3D         66.9750   -74.3990     3.1210 C.3          1 NAD401   0.0000
    32 O3D         66.0270   -75.1090     3.8860 O.3          1 NAD401   0.0000
    33 C2D         66.8840   -72.9110     3.3810 C.3          1 NAD401   0.0000
    34 O2D         65.5470   -72.5050     3.5810 O.3          1 NAD401   0.0000
    35 C1D         67.7670   -72.7660     4.6170 C.3          1 NAD401   0.0000
    36 N1N         68.4820   -71.4800     4.8100 N.ar         1 NAD401   1.0000
    37 C2N         68.8570   -70.6670     3.7760 C.ar         1 NAD401   0.0000
    38 C3N         69.5400   -69.4810     4.0420 C.ar         1 NAD401   0.0000
    39 C7N         70.0370   -68.6250     2.9190 C.2          1 NAD401   0.0000
    40 O7N         70.2400   -67.2580     3.1290 O.2          1 NAD401   0.0000
    41 N7N         70.2770   -69.1440     1.7240 N.am         1 NAD401   0.0000
    42 C4N         69.8420   -69.1130     5.3420 C.ar         1 NAD401   0.0000
    43 C5N         69.4870   -69.9640     6.3790 C.ar         1 NAD401   0.0000
    44 C6N         68.8000   -71.1400     6.1000 C.ar         1 NAD401   0.0000
    45 H5B1        69.6080   -74.3939    -5.3018 H            1 NAD401   0.0000
    46 H5B2        68.6120   -74.8492    -4.0905 H            1 NAD401   0.0000
    47 H4B         70.7608   -76.0482    -3.3085 H            1 NAD401   0.0000
    48 H3B         71.2397   -75.7215    -6.0757 H            1 NAD401   0.0000
    49 H5          72.7036   -76.0439    -3.7532 H            1 NAD401   0.0000
    50 H2B         71.2065   -77.8638    -6.5805 H            1 NAD401   0.0000
    51 H7          73.2673   -78.2507    -5.5990 H            1 NAD401   0.0000
    52 H1B         70.3811   -78.8774    -4.1277 H            1 NAD401   0.0000
    53 H8A         68.6243   -77.3899    -7.1266 H            1 NAD401   0.0000
    54 H6A1        66.7494   -82.9538    -8.5029 H            1 NAD401   0.0000
    55 H6A2        66.9794   -81.3006    -8.9657 H            1 NAD401   0.0000
    56 H2A         69.2229   -83.3070    -4.6086 H            1 NAD401   0.0000
    57 H5D1        70.3368   -74.7110     2.8590 H            1 NAD401   0.0000
    58 H5D2        69.4159   -75.8136     2.0827 H            1 NAD401   0.0000
    59 H4D         68.3184   -75.6789     4.0425 H            1 NAD401   0.0000
    60 H3D         66.8587   -74.5939     2.1471 H            1 NAD401   0.0000
    61 H17         65.1051   -74.8586     3.5904 H            1 NAD401   0.0000
    62 H2D         67.2830   -72.4060     2.6156 H            1 NAD401   0.0000
    63 H19         65.0083   -72.7186     2.7660 H            1 NAD401   0.0000
    64 H1D         67.1969   -72.9252     5.4230 H            1 NAD401   0.0000
    65 H2N         68.6422   -70.9222     2.8333 H            1 NAD401   0.0000
    66 H7N1        70.6088   -68.5604     0.9829 H            1 NAD401   0.0000
    67 H7N2        70.1264   -70.1194     1.5631 H            1 NAD401   0.0000
    68 H4N         70.3081   -68.2486     5.5305 H            1 NAD401   0.0000
    69 H5N         69.7242   -69.7325     7.3225 H            1 NAD401   0.0000
    70 H6N         68.5342   -71.7459     6.8498 H            1 NAD401   0.0000
@<TRIPOS>BOND
     1    1    2      ar
     2    1    3      ar
     3    1    4       1
     4    1   23       1
     5    4    5       1
     6    5    6       1
     7    6    7       1
     8    6    8       1
     9    7   12       1
    10    8    9       1
    11    8   10       1
    12   10   11       1
    13   10   12       1
    14   12   13       1
    15   13   14       1
    16   13   22       1
    17   14   15       2
    18   15   16       1
    19   16   17      ar
    20   16   22      ar
    21   17   18       1
    22   17   19      ar
    23   19   20      ar
    24   20   21      ar
    25   21   22      ar
    26   23   24       1
    27   24   25      ar
    28   24   26      ar
    29   24   27       1
    30   27   28       1
    31   28   29       1
    32   29   30       1
    33   29   31       1
    34   30   35       1
    35   31   32       1
    36   31   33       1
    37   33   34       1
    38   33   35       1
    39   35   36       1
    40   36   37      ar
    41   36   44      ar
    42   37   38      ar
    43   38   39       1
    44   38   42      ar
    45   39   40       2
    46   39   41      am
    47   42   43      ar
    48   43   44      ar
    49   44   70       1
    50    5   45       1
    51    5   46       1
    52    6   47       1
    53    8   48       1
    54    9   49       1
    55   10   50       1
    56   11   51       1
    57   12   52       1
    58   14   53       1
    59   18   54       1
    60   18   55       1
    61   20   56       1
    62   43   69       1
    63   28   57       1
    64   28   58       1
    65   29   59       1
    66   31   60       1
    67   32   61       1
    68   33   62       1
    69   34   63       1
    70   35   64       1
    71   37   65       1
    72   41   66       1
    73   41   67       1
    74   42   68       1
@<TRIPOS>SUBSTRUCTURE
     1 NAD401      1 GROUP             4 B     NAD     0 **** NAD B 401
