@<TRIPOS>MOLECULE
3cps_NAD_2_ligand
   70    74     1     0     0
SMALL
NO_CHARGES


@<TRIPOS>ATOM
     1 PA          17.6340   151.3900     9.1190 P.3          1 NAD401   0.0000
     2 O1A         18.2290   151.7270     7.7940 O.co2        1 NAD401   0.0000
     3 O2A         16.5300   152.2120     9.6410 O.co2        1 NAD401  -1.0000
     4 O5B         18.8030   151.4890    10.2140 O.3          1 NAD401   0.0000
     5 C5B         20.1620   151.3540     9.8950 C.3          1 NAD401   0.0000
     6 C4B         20.9870   152.2710    10.8260 C.3          1 NAD401   0.0000
     7 O4B         22.3570   151.8170    10.8630 O.3          1 NAD401   0.0000
     8 C3B         20.9860   153.6600    10.1800 C.3          1 NAD401   0.0000
     9 O3B         20.6230   154.6150    11.1650 O.3          1 NAD401   0.0000
    10 C2B         22.4330   153.8460     9.7140 C.3          1 NAD401   0.0000
    11 O2B         22.8390   155.2130     9.8600 O.3          1 NAD401   0.0000
    12 C1B         23.1980   152.9630    10.6830 C.3          1 NAD401   0.0000
    13 N9A         24.5660   152.5410    10.2360 N.pl3        1 NAD401   0.0000
    14 C8A         24.9920   152.3130     8.9910 C.2          1 NAD401   0.0000
    15 N7A         26.2820   151.9670     9.0180 N.2          1 NAD401   0.0000
    16 C5A         26.6830   151.9920    10.2770 C.ar         1 NAD401   0.0000
    17 C6A         27.8930   151.7170    10.9190 C.ar         1 NAD401   0.0000
    18 N6A         28.9670   151.3600    10.2120 N.pl3        1 NAD401   0.0000
    19 N1A         27.9580   151.8270    12.2610 N.ar         1 NAD401   0.0000
    20 C2A         26.8900   152.1800    12.9710 C.ar         1 NAD401   0.0000
    21 N3A         25.7300   152.4550    12.3830 N.ar         1 NAD401   0.0000
    22 C4A         25.5920   152.3610    11.0480 C.ar         1 NAD401   0.0000
    23 O3          17.2620   149.7630     9.1710 O.3          1 NAD401   0.0000
    24 PN          16.2890   148.9450    10.2140 P.3          1 NAD401   0.0000
    25 O1N         16.6490   149.8480    11.3250 O.co2        1 NAD401   0.0000
    26 O2N         15.1010   149.0890     9.3120 O.co2        1 NAD401  -1.0000
    27 O5D         17.2840   147.7280     9.8940 O.3          1 NAD401   0.0000
    28 C5D         18.3440   147.3580    10.7850 C.3          1 NAD401   0.0000
    29 C4D         18.6150   145.8380    10.7380 C.3          1 NAD401   0.0000
    30 O4D         17.5050   145.1750    11.4080 O.3          1 NAD401   0.0000
    31 C3D         18.6830   145.2410     9.3290 C.3          1 NAD401   0.0000
    32 O3D         19.5180   144.0820     9.4000 O.3          1 NAD401   0.0000
    33 C2D         17.2500   144.8030     9.0520 C.3          1 NAD401   0.0000
    34 O2D         17.2660   143.6720     8.1890 O.3          1 NAD401   0.0000
    35 C1D         16.8460   144.3110    10.4500 C.3          1 NAD401   0.0000
    36 N1N         15.4060   144.3340    10.7700 N.ar         1 NAD401   1.0000
    37 C2N         14.5620   145.3410    10.2920 C.ar         1 NAD401   0.0000
    38 C3N         13.2130   145.2960    10.6310 C.ar         1 NAD401   0.0000
    39 C7N         12.2500   146.3680    10.1450 C.2          1 NAD401   0.0000
    40 O7N         10.9710   146.0460     9.8350 O.2          1 NAD401   0.0000
    41 N7N         12.7070   147.6180    10.0550 N.am         1 NAD401   0.0000
    42 C4N         12.7160   144.2530    11.4180 C.ar         1 NAD401   0.0000
    43 C5N         13.5520   143.2420    11.8910 C.ar         1 NAD401   0.0000
    44 C6N         14.9030   143.2820    11.5660 C.ar         1 NAD401   0.0000
    45 H5B1        20.3115   151.6202     8.9428 H            1 NAD401   0.0000
    46 H5B2        20.4444   150.4034    10.0236 H            1 NAD401   0.0000
    47 H4B         20.5924   152.3006    11.7444 H            1 NAD401   0.0000
    48 H3B         20.3555   153.6914     9.4044 H            1 NAD401   0.0000
    49 H5          21.2839   154.5881    11.9149 H            1 NAD401   0.0000
    50 H2B         22.5511   153.5336     8.7714 H            1 NAD401   0.0000
    51 H7          22.7717   155.4798    10.8214 H            1 NAD401   0.0000
    52 H1B         23.2796   153.4416    11.5572 H            1 NAD401   0.0000
    53 H8A         24.4319   152.3895     8.1661 H            1 NAD401   0.0000
    54 H6A1        29.8300   151.1646    10.6779 H            1 NAD401   0.0000
    55 H6A2        28.9088   151.2879     9.2163 H            1 NAD401   0.0000
    56 H2A         26.9611   152.2397    13.9667 H            1 NAD401   0.0000
    57 H5D1        18.0896   147.6145    11.7175 H            1 NAD401   0.0000
    58 H5D2        19.1763   147.8452    10.5206 H            1 NAD401   0.0000
    59 H4D         19.4648   145.6370    11.2252 H            1 NAD401   0.0000
    60 H3D         19.0122   145.9022     8.6548 H            1 NAD401   0.0000
    61 H17         19.5858   143.6640     8.4941 H            1 NAD401   0.0000
    62 H2D         16.6711   145.5455     8.7150 H            1 NAD401   0.0000
    63 H19         16.7728   143.8886     7.3465 H            1 NAD401   0.0000
    64 H1D         17.1864   143.3787    10.5722 H            1 NAD401   0.0000
    65 H2N         14.9201   146.0779     9.7187 H            1 NAD401   0.0000
    66 H7N1        12.1029   148.3497     9.7393 H            1 NAD401   0.0000
    67 H7N2        13.6537   147.8233    10.3032 H            1 NAD401   0.0000
    68 H4N         11.7426   144.2315    11.6461 H            1 NAD401   0.0000
    69 H5N         13.1860   142.5011    12.4542 H            1 NAD401   0.0000
    70 H6N         15.5183   142.5660    11.8958 H            1 NAD401   0.0000
@<TRIPOS>BOND
     1    1    2      ar
     2    1    3      ar
     3    1    4       1
     4    1   23       1
     5    4    5       1
     6    5    6       1
     7    6    7       1
     8    6    8       1
     9    7   12       1
    10    8    9       1
    11    8   10       1
    12   10   11       1
    13   10   12       1
    14   12   13       1
    15   13   14       1
    16   13   22       1
    17   14   15       2
    18   15   16       1
    19   16   17      ar
    20   16   22      ar
    21   17   18       1
    22   17   19      ar
    23   19   20      ar
    24   20   21      ar
    25   21   22      ar
    26   23   24       1
    27   24   25      ar
    28   24   26      ar
    29   24   27       1
    30   27   28       1
    31   28   29       1
    32   29   30       1
    33   29   31       1
    34   30   35       1
    35   31   32       1
    36   31   33       1
    37   33   34       1
    38   33   35       1
    39   35   36       1
    40   36   37      ar
    41   36   44      ar
    42   37   38      ar
    43   38   39       1
    44   38   42      ar
    45   39   40       2
    46   39   41      am
    47   42   43      ar
    48   43   44      ar
    49   44   70       1
    50    5   45       1
    51    5   46       1
    52    6   47       1
    53    8   48       1
    54    9   49       1
    55   10   50       1
    56   11   51       1
    57   12   52       1
    58   14   53       1
    59   18   54       1
    60   18   55       1
    61   20   56       1
    62   43   69       1
    63   28   57       1
    64   28   58       1
    65   29   59       1
    66   31   60       1
    67   32   61       1
    68   33   62       1
    69   34   63       1
    70   35   64       1
    71   37   65       1
    72   41   66       1
    73   41   67       1
    74   42   68       1
@<TRIPOS>SUBSTRUCTURE
     1 NAD401      1 GROUP             4 B     NAD     0 **** NAD B 401
