@<TRIPOS>MOLECULE
2j5s_KTA_1_ligand
   22    22     1     0     0
SMALL
NO_CHARGES


@<TRIPOS>ATOM
     1 C8           6.8250   -21.6000     4.6610 C.2          1 KTA1253   0.0000
     2 O1           6.2020   -20.8110     3.8890 O.co2        1 KTA1253   0.0000
     3 O2           6.5170   -22.7910     4.9200 O.co2        1 KTA1253  -1.0000
     4 C7           8.0820   -21.0950     5.3760 C.3          1 KTA1253   0.0000
     5 C1           9.0850   -20.6170     4.3370 C.3          1 KTA1253   0.0000
     6 C2           9.5850   -21.8350     3.5570 C.3          1 KTA1253   0.0000
     7 C3          10.6780   -21.3860     2.5770 C.2          1 KTA1253   0.0000
     8 C4          11.8340   -20.4990     3.0610 C.3          1 KTA1253   0.0000
     9 C5          11.3000   -19.3750     3.9640 C.3          1 KTA1253   0.0000
    10 C6          10.2700   -19.8720     4.9980 C.3          1 KTA1253   0.0000
    11 O3          10.6080   -21.7060     1.4020 O.2          1 KTA1253   0.0000
    12 H1           8.4833   -21.8372     5.9127 H            1 KTA1253   0.0000
    13 H2           7.8410   -20.3374     5.9827 H            1 KTA1253   0.0000
    14 H3           8.6239   -19.9947     3.7045 H            1 KTA1253   0.0000
    15 H4           8.8261   -22.2427     3.0492 H            1 KTA1253   0.0000
    16 H5           9.9609   -22.5092     4.1928 H            1 KTA1253   0.0000
    17 H6          12.2947   -20.0963     2.2700 H            1 KTA1253   0.0000
    18 H7          12.4841   -21.0565     3.5773 H            1 KTA1253   0.0000
    19 H8          10.8650   -18.6829     3.3880 H            1 KTA1253   0.0000
    20 H9          12.0704   -18.9656     4.4528 H            1 KTA1253   0.0000
    21 H10         10.7270   -20.4946     5.6332 H            1 KTA1253   0.0000
    22 H11          9.9141   -19.0845     5.5012 H            1 KTA1253   0.0000
@<TRIPOS>BOND
     1    1    2      ar
     2    1    3      ar
     3    1    4       1
     4    4    5       1
     5    5    6       1
     6    5   10       1
     7    6    7       1
     8    7    8       1
     9    7   11       2
    10    8    9       1
    11    9   10       1
    12   10   22       1
    13    4   12       1
    14    4   13       1
    15    5   14       1
    16    6   15       1
    17    6   16       1
    18    8   17       1
    19    8   18       1
    20    9   19       1
    21    9   20       1
    22   10   21       1
@<TRIPOS>SUBSTRUCTURE
     1 KTA1253     1 GROUP             4 A     KTA     0 **** KTA A1253
