@<TRIPOS>MOLECULE
4gqk_ADP_1_ligand
   39    41     1     0     0
SMALL
NO_CHARGES


@<TRIPOS>ATOM
     1 PB          34.3540    87.1790     4.0490 P.3          1 ADP401   0.0000
     2 O1B         34.4920    85.7000     4.3300 O.co2        1 ADP401   0.0000
     3 O2B         35.6070    87.6030     3.2460 O.co2        1 ADP401  -1.0000
     4 O3B         33.0900    87.3840     3.1920 O.co2        1 ADP401  -1.0000
     5 PA          34.6040    87.5530     6.8900 P.3          1 ADP401   0.0000
     6 O1A         34.2240    86.1330     7.1040 O.co2        1 ADP401   0.0000
     7 O2A         36.1330    87.6550     7.1030 O.co2        1 ADP401  -1.0000
     8 O3A         34.2300    88.0270     5.4050 O.3          1 ADP401   0.0000
     9 O5'         33.7720    88.4390     7.9140 O.3          1 ADP401   0.0000
    10 C5'         34.2120    89.7920     7.9690 C.3          1 ADP401   0.0000
    11 C4'         33.7380    90.5030     9.2030 C.3          1 ADP401   0.0000
    12 O4'         32.9970    89.6300    10.0830 O.3          1 ADP401   0.0000
    13 C3'         34.8170    91.1630    10.0550 C.3          1 ADP401   0.0000
    14 O3'         34.5360    92.5470    10.1290 O.3          1 ADP401   0.0000
    15 C2'         34.6840    90.4500    11.3970 C.3          1 ADP401   0.0000
    16 O2'         35.0530    91.2390    12.5090 O.3          1 ADP401   0.0000
    17 C1'         33.2110    90.1390    11.3730 C.3          1 ADP401   0.0000
    18 N9          32.6620    89.2820    12.4120 N.pl3        1 ADP401   0.0000
    19 C8          33.0180    88.0010    12.7190 C.2          1 ADP401   0.0000
    20 N7          32.5060    87.5650    13.8430 N.2          1 ADP401   0.0000
    21 C5          31.7300    88.6300    14.2880 C.ar         1 ADP401   0.0000
    22 C6          30.8780    88.7810    15.4080 C.ar         1 ADP401   0.0000
    23 N6          30.7180    87.8370    16.3660 N.pl3        1 ADP401   0.0000
    24 N1          30.2400    89.9710    15.5530 N.ar         1 ADP401   0.0000
    25 C2          30.4610    90.9330    14.6530 C.ar         1 ADP401   0.0000
    26 N3          31.2280    90.8860    13.5610 N.ar         1 ADP401   0.0000
    27 C4          31.8290    89.6940    13.4210 C.ar         1 ADP401   0.0000
    28 H5'1        33.8623    90.2754     7.1665 H            1 ADP401   0.0000
    29 H5'2        35.2118    89.8045     7.9562 H            1 ADP401   0.0000
    30 H4'         33.1124    91.2247     8.9067 H            1 ADP401   0.0000
    31 H3'         35.7227    91.0072     9.6607 H            1 ADP401   0.0000
    32 H5          34.0684    92.8373     9.2941 H            1 ADP401   0.0000
    33 H2'         35.2134    89.6017    11.3881 H            1 ADP401   0.0000
    34 H7          36.0278    91.1169    12.6956 H            1 ADP401   0.0000
    35 H1'         32.7265    91.0121    11.4273 H            1 ADP401   0.0000
    36 H9          33.6148    87.4462    12.1393 H            1 ADP401   0.0000
    37 H10         30.1000    88.0040    17.1342 H            1 ADP401   0.0000
    38 H11         31.2179    86.9731    16.3051 H            1 ADP401   0.0000
    39 H12         29.9915    91.8003    14.8184 H            1 ADP401   0.0000
@<TRIPOS>BOND
     1    1    2      ar
     2    1    3      ar
     3    1    4      ar
     4    1    8       1
     5    5    6      ar
     6    5    7      ar
     7    5    8       1
     8    5    9       1
     9    9   10       1
    10   10   11       1
    11   11   12       1
    12   11   13       1
    13   12   17       1
    14   13   14       1
    15   13   15       1
    16   15   16       1
    17   15   17       1
    18   17   18       1
    19   18   19       1
    20   18   27       1
    21   19   20       2
    22   20   21       1
    23   21   22      ar
    24   21   27      ar
    25   22   23       1
    26   22   24      ar
    27   24   25      ar
    28   25   26      ar
    29   26   27      ar
    30   25   39       1
    31   23   38       1
    32   23   37       1
    33   10   28       1
    34   10   29       1
    35   11   30       1
    36   13   31       1
    37   14   32       1
    38   15   33       1
    39   16   34       1
    40   17   35       1
    41   19   36       1
@<TRIPOS>SUBSTRUCTURE
     1 ADP401      1 GROUP             4 A     ADP     0 **** ADP A 401
