@<TRIPOS>MOLECULE
3pgx_NAD_2_ligand
   70    74     1     0     0
SMALL
NO_CHARGES


@<TRIPOS>ATOM
     1 PA         113.3420     9.7340    50.9970 P.3          1 NAD277   0.0000
     2 O1A        112.3550     9.3920    52.0860 O.co2        1 NAD277   0.0000
     3 O2A        114.4980     8.8030    50.7130 O.co2        1 NAD277  -1.0000
     4 O5B        113.9420    11.2080    51.3030 O.3          1 NAD277   0.0000
     5 C5B        113.2170    12.2170    51.9940 C.3          1 NAD277   0.0000
     6 C4B        114.1020    12.7530    53.0910 C.3          1 NAD277   0.0000
     7 O4B        113.3370    13.7550    53.7800 O.3          1 NAD277   0.0000
     8 C3B        114.4610    11.6890    54.1310 C.3          1 NAD277   0.0000
     9 O3B        115.8880    11.6300    54.3200 O.3          1 NAD277   0.0000
    10 C2B        113.7080    12.1550    55.3760 C.3          1 NAD277   0.0000
    11 O2B        114.2990    11.7910    56.6490 O.3          1 NAD277   0.0000
    12 C1B        113.5600    13.6580    55.1880 C.3          1 NAD277   0.0000
    13 N9A        112.4040    14.1660    55.9750 N.pl3        1 NAD277   0.0000
    14 C8A        111.1480    13.6460    56.0320 C.2          1 NAD277   0.0000
    15 N7A        110.4170    14.4010    56.8880 N.2          1 NAD277   0.0000
    16 C5A        111.2460    15.3770    57.3480 C.ar         1 NAD277   0.0000
    17 C6A        111.0900    16.4310    58.2310 C.ar         1 NAD277   0.0000
    18 N6A        109.8760    16.6300    58.8500 N.pl3        1 NAD277   0.0000
    19 N1A        112.1510    17.2720    58.4400 N.ar         1 NAD277   0.0000
    20 C2A        113.3590    17.0860    57.8690 C.ar         1 NAD277   0.0000
    21 N3A        113.5360    16.0580    57.0320 N.ar         1 NAD277   0.0000
    22 C4A        112.4850    15.2210    56.7530 C.ar         1 NAD277   0.0000
    23 O3         112.5170     9.9400    49.6100 O.3          1 NAD277   0.0000
    24 PN         112.8780    10.8340    48.3000 P.3          1 NAD277   0.0000
    25 O1N        112.2470    10.0810    47.1460 O.co2        1 NAD277   0.0000
    26 O2N        114.3490    11.1490    48.1530 O.co2        1 NAD277  -1.0000
    27 O5D        112.0420    12.1790    48.6440 O.3          1 NAD277   0.0000
    28 C5D        112.5090    13.4920    48.3020 C.3          1 NAD277   0.0000
    29 C4D        111.2910    14.3130    47.8250 C.3          1 NAD277   0.0000
    30 O4D        110.8170    13.7340    46.5940 O.3          1 NAD277   0.0000
    31 C3D        110.1090    14.2300    48.7880 C.3          1 NAD277   0.0000
    32 O3D        109.5430    15.5500    48.9410 O.3          1 NAD277   0.0000
    33 C2D        109.1420    13.2820    48.0930 C.3          1 NAD277   0.0000
    34 O2D        107.7930    13.6060    48.4360 O.3          1 NAD277   0.0000
    35 C1D        109.4000    13.6310    46.6380 C.3          1 NAD277   0.0000
    36 N1N        109.0360    12.6950    45.5670 N.ar         1 NAD277   1.0000
    37 C2N        109.5050    11.4250    45.5590 C.ar         1 NAD277   0.0000
    38 C3N        109.1710    10.5740    44.5070 C.ar         1 NAD277   0.0000
    39 C7N        109.6730     9.1650    44.4380 C.2          1 NAD277   0.0000
    40 O7N        109.3020     8.4720    43.4940 O.2          1 NAD277   0.0000
    41 N7N        110.5520     8.7230    45.3570 N.am         1 NAD277   0.0000
    42 C4N        108.3910    11.0860    43.4470 C.ar         1 NAD277   0.0000
    43 C5N        107.9480    12.4280    43.4660 C.ar         1 NAD277   0.0000
    44 C6N        108.2990    13.2230    44.5490 C.ar         1 NAD277   0.0000
    45 H5B1       112.3846    11.8278    52.3884 H            1 NAD277   0.0000
    46 H5B2       112.9740    12.9536    51.3629 H            1 NAD277   0.0000
    47 H4B        114.9318    13.1544    52.7034 H            1 NAD277   0.0000
    48 H3B        114.1180    10.7963    53.8386 H            1 NAD277   0.0000
    49 H5         116.2193    12.5188    54.6367 H            1 NAD277   0.0000
    50 H2B        112.7922    11.7547    55.3426 H            1 NAD277   0.0000
    51 H7         115.2160    12.1844    56.7155 H            1 NAD277   0.0000
    52 H1B        114.4013    14.1323    55.4473 H            1 NAD277   0.0000
    53 H8A        110.8209    12.8457    55.5295 H            1 NAD277   0.0000
    54 H6A1       109.7592    17.3905    59.4887 H            1 NAD277   0.0000
    55 H6A2       109.1113    16.0140    58.6607 H            1 NAD277   0.0000
    56 H2A        114.1141    17.7102    58.0695 H            1 NAD277   0.0000
    57 H5D1       113.1876    13.4323    47.5699 H            1 NAD277   0.0000
    58 H5D2       112.9203    13.9267    49.1031 H            1 NAD277   0.0000
    59 H4D        111.5526    15.2672    47.6801 H            1 NAD277   0.0000
    60 H3D        110.3955    13.8610    49.6721 H            1 NAD277   0.0000
    61 H17        110.2369    16.1698    49.3075 H            1 NAD277   0.0000
    62 H2D        109.3552    12.3248    48.2887 H            1 NAD277   0.0000
    63 H19        107.6723    13.5263    49.4255 H            1 NAD277   0.0000
    64 H1D        109.0004    14.5261    46.4403 H            1 NAD277   0.0000
    65 H2N        110.0877    11.0994    46.3036 H            1 NAD277   0.0000
    66 H7N1       110.8896     7.7827    45.3143 H            1 NAD277   0.0000
    67 H7N2       110.8673     9.3350    46.0823 H            1 NAD277   0.0000
    68 H4N        108.1503    10.4947    42.6773 H            1 NAD277   0.0000
    69 H5N        107.3955    12.7959    42.7181 H            1 NAD277   0.0000
    70 H6N        108.0119    14.1803    44.5821 H            1 NAD277   0.0000
@<TRIPOS>BOND
     1    1    2      ar
     2    1    3      ar
     3    1    4       1
     4    1   23       1
     5    4    5       1
     6    5    6       1
     7    6    7       1
     8    6    8       1
     9    7   12       1
    10    8    9       1
    11    8   10       1
    12   10   11       1
    13   10   12       1
    14   12   13       1
    15   13   14       1
    16   13   22       1
    17   14   15       2
    18   15   16       1
    19   16   17      ar
    20   16   22      ar
    21   17   18       1
    22   17   19      ar
    23   19   20      ar
    24   20   21      ar
    25   21   22      ar
    26   23   24       1
    27   24   25      ar
    28   24   26      ar
    29   24   27       1
    30   27   28       1
    31   28   29       1
    32   29   30       1
    33   29   31       1
    34   30   35       1
    35   31   32       1
    36   31   33       1
    37   33   34       1
    38   33   35       1
    39   35   36       1
    40   36   37      ar
    41   36   44      ar
    42   37   38      ar
    43   38   39       1
    44   38   42      ar
    45   39   40       2
    46   39   41      am
    47   42   43      ar
    48   43   44      ar
    49   44   70       1
    50    5   45       1
    51    5   46       1
    52    6   47       1
    53    8   48       1
    54    9   49       1
    55   10   50       1
    56   11   51       1
    57   12   52       1
    58   14   53       1
    59   18   54       1
    60   18   55       1
    61   20   56       1
    62   43   69       1
    63   28   57       1
    64   28   58       1
    65   29   59       1
    66   31   60       1
    67   32   61       1
    68   33   62       1
    69   34   63       1
    70   35   64       1
    71   37   65       1
    72   41   66       1
    73   41   67       1
    74   42   68       1
@<TRIPOS>SUBSTRUCTURE
     1 NAD277      1 GROUP             4 B     NAD     0 **** NAD B 277
