@<TRIPOS>MOLECULE
4c94_KXN_4_ligand
   35    37     1     0     0
SMALL
NO_CHARGES


@<TRIPOS>ATOM
     1 O94         -7.6730   -39.0500    18.3190 O.3          1 KXN160   0.0000
     2 C94         -7.5960   -40.1340    19.1770 C.ar         1 KXN160   0.0000
     3 C93         -7.2620   -39.8860    20.5510 C.ar         1 KXN160   0.0000
     4 O93         -7.0450   -38.6070    20.9730 O.3          1 KXN160   0.0000
     5 C92         -7.1630   -40.9210    21.4690 C.ar         1 KXN160   0.0000
     6 C95         -7.8340   -41.4440    18.6980 C.ar         1 KXN160   0.0000
     7 C96         -7.7350   -42.4560    19.6290 C.ar         1 KXN160   0.0000
     8 C91         -7.3990   -42.1940    20.9770 C.ar         1 KXN160   0.0000
     9 C2          -7.2360   -43.2780    21.8410 C.3          1 KXN160   0.0000
    10 O1          -8.3580   -43.8260    22.4930 O.3          1 KXN160   0.0000
    11 C3          -6.1470   -44.3510    21.1550 C.3          1 KXN160   0.0000
    12 O3          -4.8690   -43.8420    20.7910 O.3          1 KXN160   0.0000
    13 C4          -5.7720   -45.4300    22.0450 C.3          1 KXN160   0.0000
    14 C10         -6.8670   -45.7960    22.8210 C.ar         1 KXN160   0.0000
    15 C9          -8.0870   -45.0640    23.0480 C.ar         1 KXN160   0.0000
    16 C8          -9.0620   -45.6050    23.8650 C.ar         1 KXN160   0.0000
    17 C5          -6.6760   -47.0230    23.4380 C.ar         1 KXN160   0.0000
    18 O51         -5.4930   -47.6170    23.1530 O.3          1 KXN160   0.0000
    19 C6          -7.6350   -47.5730    24.2770 C.ar         1 KXN160   0.0000
    20 C7          -8.8130   -46.8430    24.4720 C.ar         1 KXN160   0.0000
    21 O71         -9.7440   -47.3580    25.2750 O.3          1 KXN160   0.0000
    22 H1          -7.9035   -39.1899    17.3560 H            1 KXN160   0.0000
    23 H2          -7.1189   -37.8478    20.3263 H            1 KXN160   0.0000
    24 H3          -6.9348   -40.7578    22.4289 H            1 KXN160   0.0000
    25 H4          -8.0606   -41.6250    17.7410 H            1 KXN160   0.0000
    26 H5          -7.9052   -43.3992    19.3436 H            1 KXN160   0.0000
    27 H6          -6.7122   -42.8830    22.5957 H            1 KXN160   0.0000
    28 H7          -6.5696   -44.7488    20.3406 H            1 KXN160   0.0000
    29 H8          -4.2403   -43.9366    21.5629 H            1 KXN160   0.0000
    30 H9          -5.0282   -45.1269    22.6407 H            1 KXN160   0.0000
    31 H10         -5.4683   -46.2157    21.5061 H            1 KXN160   0.0000
    32 H11         -9.9250   -45.1240    24.0192 H            1 KXN160   0.0000
    33 H12         -5.2700   -48.5054    23.5544 H            1 KXN160   0.0000
    34 H13         -7.4901   -48.4556    24.7243 H            1 KXN160   0.0000
    35 H14         -9.5886   -48.2403    25.7193 H            1 KXN160   0.0000
@<TRIPOS>BOND
     1    1    2       1
     2    2    3      ar
     3    2    6      ar
     4    3    4       1
     5    3    5      ar
     6    5    8      ar
     7    6    7      ar
     8    7    8      ar
     9    8    9       1
    10    9   10       1
    11    9   11       1
    12   10   15       1
    13   11   12       1
    14   11   13       1
    15   13   14       1
    16   14   15      ar
    17   14   17      ar
    18   15   16      ar
    19   16   20      ar
    20   17   18       1
    21   17   19      ar
    22   19   20      ar
    23   20   21       1
    24    1   22       1
    25    4   23       1
    26    5   24       1
    27    6   25       1
    28    7   26       1
    29    9   27       1
    30   11   28       1
    31   12   29       1
    32   13   30       1
    33   13   31       1
    34   16   32       1
    35   18   33       1
    36   19   34       1
    37   21   35       1
@<TRIPOS>SUBSTRUCTURE
     1 KXN160      1 GROUP             4 D     KXN     0 **** KXN D 160
