@<TRIPOS>MOLECULE
2cej_1AH_1_ligand
   86    89     1     0     0
SMALL
NO_CHARGES


@<TRIPOS>ATOM
     1 C23         14.7990    22.1140     7.9090 C.ar         1 1AH1200   0.0000
     2 C24         14.2840    20.9720     8.6230 C.ar         1 1AH1200   0.0000
     3 C25         15.1580    20.1610     9.4240 C.ar         1 1AH1200   0.0000
     4 C26         16.5570    20.4900     9.5160 C.ar         1 1AH1200   0.0000
     5 C27         17.0770    21.6270     8.8100 C.ar         1 1AH1200   0.0000
     6 C28         16.2080    22.4410     8.0080 C.ar         1 1AH1200   0.0000
     7 C33          9.8270    23.7910     2.8810 C.ar         1 1AH1200   0.0000
     8 C34         10.3450    24.5120     1.7690 C.ar         1 1AH1200   0.0000
     9 C35          9.4820    25.3570     1.0200 C.ar         1 1AH1200   0.0000
    10 C36          8.1050    25.4730     1.3930 C.ar         1 1AH1200   0.0000
    11 C37          7.5870    24.7400     2.5030 C.ar         1 1AH1200   0.0000
    12 C38          8.4480    23.8980     3.2480 C.ar         1 1AH1200   0.0000
    13 C32         10.7490    22.9350     3.6710 C.3          1 1AH1200   0.0000
    14 C7           5.5460    27.2890     4.6170 C.3          1 1AH1200   0.0000
    15 C4          12.6900    22.6490     4.6390 C.3          1 1AH1200   0.0000
    16 O3           8.2660    27.6630     5.1840 O.2          1 1AH1200   0.0000
    17 N1           8.2980    25.7790     6.4460 N.am         1 1AH1200   0.0000
    18 C22         13.8670    22.9520     7.0240 C.3          1 1AH1200   0.0000
    19 O6          14.9360    23.5260     4.9140 O.3          1 1AH1200   0.0000
    20 O8           6.3440    26.4270     5.4320 O.3          1 1AH1200   0.0000
    21 C10         14.4260    21.1560     5.2090 C.2          1 1AH1200   0.0000
    22 O11         13.5450    20.2820     5.1370 O.2          1 1AH1200   0.0000
    23 N12         15.7200    20.8040     5.1140 N.am         1 1AH1200   0.0000
    24 C51         16.1280    19.4050     4.9480 C.3          1 1AH1200   0.0000
    25 C52         16.1050    18.8570     3.5460 C.ar         1 1AH1200   0.0000
    26 C57         17.1280    17.9010     3.4230 C.ar         1 1AH1200   0.0000
    27 C53         15.2430    19.1780     2.4470 C.ar         1 1AH1200   0.0000
    28 C54         15.4520    18.4970     1.2010 C.ar         1 1AH1200   0.0000
    29 C55         16.5020    17.5210     1.0810 C.ar         1 1AH1200   0.0000
    30 C59         17.5640    19.1040     5.4340 C.3          1 1AH1200   0.0000
    31 O60         18.4930    20.0600     4.9250 O.3          1 1AH1200   0.0000
    32 C30          7.6580    26.6680     5.6650 C.2          1 1AH1200   0.0000
    33 C56         17.3530    17.2110     2.1980 C.ar         1 1AH1200   0.0000
    34 C58         17.8820    17.7640     4.7340 C.3          1 1AH1200   0.0000
    35 C41          9.7180    25.7970     6.8500 C.3          1 1AH1200   0.0000
    36 C42          9.8000    26.0620     8.3980 C.3          1 1AH1200   0.0000
    37 C43          9.1510    27.4140     8.8140 C.3          1 1AH1200   0.0000
    38 C1          13.9900    22.6400     5.4810 C.3          1 1AH1200   0.0000
    39 C44         11.2420    26.0950     8.9250 C.3          1 1AH1200   0.0000
    40 C45         10.3790    24.4880     6.3210 C.2          1 1AH1200   0.0000
    41 N24         11.7750    23.7090     4.4380 N.3          1 1AH1200   0.0000
    42 O46         10.0150    23.3910     6.7380 O.2          1 1AH1200   0.0000
    43 N47         11.3600    24.6310     5.3950 N.am         1 1AH1200   0.0000
    44 BR           6.9720    26.6170     0.4190 Br           1 1AH1200   0.0000
    45 C86          9.0240    24.9560     9.1370 C.3          1 1AH1200   0.0000
    46 H1          13.3125    20.7433     8.5601 H            1 1AH1200   0.0000
    47 H2          14.7958    19.3697     9.9167 H            1 1AH1200   0.0000
    48 H3          17.1671    19.9258    10.0723 H            1 1AH1200   0.0000
    49 H4          18.0488    21.8529     8.8772 H            1 1AH1200   0.0000
    50 H5          16.5740    23.2324     7.5184 H            1 1AH1200   0.0000
    51 H6          11.3087    24.4248     1.5165 H            1 1AH1200   0.0000
    52 H7           9.8351    25.8680     0.2363 H            1 1AH1200   0.0000
    53 H8           6.6221    24.8206     2.7529 H            1 1AH1200   0.0000
    54 H9           8.0940    23.3805     4.0270 H            1 1AH1200   0.0000
    55 H10         11.2229    22.3173     3.0434 H            1 1AH1200   0.0000
    56 H11         10.2067    22.4002     4.3190 H            1 1AH1200   0.0000
    57 H12          4.6117    26.9354     4.5731 H            1 1AH1200   0.0000
    58 H13          5.5366    28.2073     5.0128 H            1 1AH1200   0.0000
    59 H14          5.9316    27.3273     3.6951 H            1 1AH1200   0.0000
    60 H15         12.1368    21.9108     5.0250 H            1 1AH1200   0.0000
    61 H16         12.9867    22.3966     3.7180 H            1 1AH1200   0.0000
    62 H17          7.7489    25.0186     6.7928 H            1 1AH1200   0.0000
    63 H18         14.0826    23.9179     7.1672 H            1 1AH1200   0.0000
    64 H19         12.9239    22.7756     7.3058 H            1 1AH1200   0.0000
    65 H20         15.1722    24.2328     5.5808 H            1 1AH1200   0.0000
    66 H21         16.4225    21.5144     5.1576 H            1 1AH1200   0.0000
    67 H22         15.5053    18.8465     5.4960 H            1 1AH1200   0.0000
    68 H23         14.5161    19.8576     2.5456 H            1 1AH1200   0.0000
    69 H24         14.8674    18.7011     0.4158 H            1 1AH1200   0.0000
    70 H25         16.6420    17.0518     0.2091 H            1 1AH1200   0.0000
    71 H26         17.6138    19.0272     6.4298 H            1 1AH1200   0.0000
    72 H27         18.2357    20.9742     5.2381 H            1 1AH1200   0.0000
    73 H28         18.0815    16.5307     2.1168 H            1 1AH1200   0.0000
    74 H29         18.8643    17.6603     4.5783 H            1 1AH1200   0.0000
    75 H30         17.5452    16.9876     5.2667 H            1 1AH1200   0.0000
    76 H31         10.1559    26.5672     6.3864 H            1 1AH1200   0.0000
    77 H32          9.2307    27.5314     9.8039 H            1 1AH1200   0.0000
    78 H33          9.6202    28.1656     8.3503 H            1 1AH1200   0.0000
    79 H34          8.1851    27.4137     8.5551 H            1 1AH1200   0.0000
    80 H35         11.2330    26.2661     9.9102 H            1 1AH1200   0.0000
    81 H36         11.6835    25.2163     8.7433 H            1 1AH1200   0.0000
    82 H37         11.7485    26.8240     8.4647 H            1 1AH1200   0.0000
    83 H38         11.8444    25.5058     5.4005 H            1 1AH1200   0.0000
    84 H39          9.0713    25.1173    10.1228 H            1 1AH1200   0.0000
    85 H40          8.0682    24.9661     8.8431 H            1 1AH1200   0.0000
    86 H41          9.4286    24.0664     8.9250 H            1 1AH1200   0.0000
@<TRIPOS>BOND
     1    1    2      ar
     2    1    6      ar
     3    1   18       1
     4    2    3      ar
     5    3    4      ar
     6    4    5      ar
     7    5    6      ar
     8    7    8      ar
     9    7   12      ar
    10    7   13       1
    11    8    9      ar
    12    9   10      ar
    13   10   11      ar
    14   10   44       1
    15   11   12      ar
    16   13   41       1
    17   14   20       1
    18   15   38       1
    19   15   41       1
    20   16   32       2
    21   17   32      am
    22   17   35       1
    23   18   38       1
    24   19   38       1
    25   20   32       1
    26   21   22       2
    27   21   23      am
    28   21   38       1
    29   23   24       1
    30   24   25       1
    31   24   30       1
    32   25   26      ar
    33   25   27      ar
    34   26   33      ar
    35   26   34       1
    36   27   28      ar
    37   28   29      ar
    38   29   33      ar
    39   30   31       1
    40   30   34       1
    41   35   36       1
    42   35   40       1
    43   36   37       1
    44   36   39       1
    45   36   45       1
    46   40   42       2
    47   40   43      am
    48   41   43       1
    49    2   46       1
    50    3   47       1
    51    4   48       1
    52    5   49       1
    53    6   50       1
    54    8   51       1
    55    9   52       1
    56   11   53       1
    57   12   54       1
    58   13   55       1
    59   13   56       1
    60   14   57       1
    61   14   58       1
    62   14   59       1
    63   15   60       1
    64   15   61       1
    65   17   62       1
    66   18   63       1
    67   18   64       1
    68   19   65       1
    69   23   66       1
    70   24   67       1
    71   27   68       1
    72   28   69       1
    73   29   70       1
    74   30   71       1
    75   31   72       1
    76   33   73       1
    77   34   74       1
    78   34   75       1
    79   35   76       1
    80   37   77       1
    81   37   78       1
    82   37   79       1
    83   39   80       1
    84   39   81       1
    85   39   82       1
    86   43   83       1
    87   45   84       1
    88   45   85       1
    89   45   86       1
@<TRIPOS>SUBSTRUCTURE
     1 1AH1200     1 GROUP             4 B     1AH     0 **** 1AH B1200
