@<TRIPOS>MOLECULE
4n8i_COA_1_ligand
   80    82     1     0     0
SMALL
NO_CHARGES


@<TRIPOS>ATOM
     1 N1A        -15.8710     4.4860     6.0920 N.ar         1 COA501   0.0000
     2 C2A        -14.8040     4.6850     5.2520 C.ar         1 COA501   0.0000
     3 N3A        -14.9500     4.5550     3.9080 N.ar         1 COA501   0.0000
     4 C4A        -16.1650     4.2360     3.3870 C.ar         1 COA501   0.0000
     5 C5A        -17.2170     4.0440     4.2030 C.ar         1 COA501   0.0000
     6 C6A        -17.0720     4.1740     5.5650 C.ar         1 COA501   0.0000
     7 N6A        -17.9660     4.0240     6.6510 N.pl3        1 COA501   0.0000
     8 N7A        -18.3110     3.7250     3.4490 N.2          1 COA501   0.0000
     9 C8A        -17.9140     3.7360     2.1690 C.2          1 COA501   0.0000
    10 N9A        -16.5810     4.0540     2.1170 N.pl3        1 COA501   0.0000
    11 C1B        -15.7920     4.1060     0.9540 C.3          1 COA501   0.0000
    12 C2B        -15.9300     3.0150     0.1560 C.3          1 COA501   0.0000
    13 O2B        -14.9340     1.9350     0.3690 O.3          1 COA501   0.0000
    14 C3B        -15.7430     3.5730    -1.2680 C.3          1 COA501   0.0000
    15 O3B        -14.4600     3.5420    -1.6130 O.3          1 COA501   0.0000
    16 P3B        -14.0420     3.4360    -3.1520 P.3          1 COA501   0.0000
    17 O7A        -15.0900     2.7380    -3.9500 O.co2        1 COA501   0.0000
    18 O8A        -13.8430     4.8210    -3.6780 O.co2        1 COA501  -1.0000
    19 O9A        -12.7910     2.6520    -3.2490 O.co2        1 COA501  -1.0000
    20 C4B        -16.2620     5.0550    -1.1910 C.3          1 COA501   0.0000
    21 O4B        -16.2150     5.3840     0.0720 O.3          1 COA501   0.0000
    22 C5B        -17.7000     5.1410    -1.6900 C.3          1 COA501   0.0000
    23 O5B        -18.5320     4.1730    -1.0320 O.3          1 COA501   0.0000
    24 P1A        -19.7370     3.5370    -1.8370 P.3          1 COA501   0.0000
    25 O1A        -19.3260     2.9210    -3.1170 O.co2        1 COA501   0.0000
    26 O2A        -20.4480     2.5910    -0.9280 O.co2        1 COA501  -1.0000
    27 O3A        -20.6670     4.8130    -2.1340 O.3          1 COA501   0.0000
    28 P2A        -21.7240     5.0900    -3.3060 P.3          1 COA501   0.0000
    29 O4A        -21.0460     5.8330    -4.4200 O.co2        1 COA501   0.0000
    30 O5A        -22.3730     3.7780    -3.7340 O.co2        1 COA501  -1.0000
    31 O6A        -22.9150     5.9710    -2.6330 O.3          1 COA501   0.0000
    32 CBP        -24.0080     6.8300    -0.6340 C.3          1 COA501   0.0000
    33 CCP        -23.3330     5.5930    -1.3010 C.3          1 COA501   0.0000
    34 CDP        -22.9570     7.9580    -0.4480 C.3          1 COA501   0.0000
    35 CEP        -24.5060     6.3770     0.7310 C.3          1 COA501   0.0000
    36 CAP        -25.1620     7.2490    -1.5990 C.3          1 COA501   0.0000
    37 OAP        -26.1190     6.2180    -1.6790 O.3          1 COA501   0.0000
    38 C9P        -25.8300     8.4850    -1.1130 C.2          1 COA501   0.0000
    39 O9P        -25.3650     9.5310    -1.4010 O.2          1 COA501   0.0000
    40 N8P        -26.9830     8.3470    -0.3160 N.am         1 COA501   0.0000
    41 C7P        -27.7110     9.4740     0.1990 C.3          1 COA501   0.0000
    42 C6P        -28.8660     9.8960    -0.7160 C.3          1 COA501   0.0000
    43 C5P        -29.9420     8.8380    -0.9050 C.2          1 COA501   0.0000
    44 O5P        -29.9530     7.7300    -0.3290 O.2          1 COA501   0.0000
    45 N4P        -30.9910     9.1630    -1.8060 N.am         1 COA501   0.0000
    46 C3P        -32.0870     8.2360    -2.0180 C.3          1 COA501   0.0000
    47 C2P        -32.9820     8.9180    -3.0390 C.3          1 COA501   0.0000
    48 S1P        -32.1450     8.7530    -4.6020 S.3          1 COA501   0.0000
    49 H2A        -13.9117     4.9277     5.6327 H            1 COA501   0.0000
    50 H6A1       -18.9232     3.7893     6.4819 H            1 COA501   0.0000
    51 H6A2       -17.6407     4.1527     7.5878 H            1 COA501   0.0000
    52 H8A        -18.4961     3.5433     1.3790 H            1 COA501   0.0000
    53 H1B        -14.8315     4.1965     1.2170 H            1 COA501   0.0000
    54 H2B        -16.8535     2.6436     0.2522 H            1 COA501   0.0000
    55 H7         -15.1193     1.1815    -0.2618 H            1 COA501   0.0000
    56 H3B        -16.2898     3.0480    -1.9202 H            1 COA501   0.0000
    57 H4B        -15.6719     5.6574    -1.7284 H            1 COA501   0.0000
    58 H5B1       -17.7151     4.9695    -2.6751 H            1 COA501   0.0000
    59 H5B2       -18.0558     6.0572    -1.5057 H            1 COA501   0.0000
    60 HCP1       -22.5382     5.3103    -0.7640 H            1 COA501   0.0000
    61 HCP2       -23.9862     4.8375    -1.3526 H            1 COA501   0.0000
    62 HDP1       -23.3911     8.7508    -0.0201 H            1 COA501   0.0000
    63 HDP2       -22.2147     7.6290     0.1357 H            1 COA501   0.0000
    64 HDP3       -22.5885     8.2206    -1.3398 H            1 COA501   0.0000
    65 HEP1       -24.9483     7.1440     1.1959 H            1 COA501   0.0000
    66 HEP2       -25.1640     5.6329     0.6157 H            1 COA501   0.0000
    67 HEP3       -23.7329     6.0565     1.2783 H            1 COA501   0.0000
    68 HAP        -24.7837     7.4168    -2.5094 H            1 COA501   0.0000
    69 H21        -26.5519     6.2342    -2.5803 H            1 COA501   0.0000
    70 H8P        -27.3086     7.4266    -0.0995 H            1 COA501   0.0000
    71 H7P1       -27.0814    10.2448     0.2966 H            1 COA501   0.0000
    72 H7P2       -28.0837     9.2325     1.0950 H            1 COA501   0.0000
    73 H6P1       -28.4870    10.1195    -1.6140 H            1 COA501   0.0000
    74 H6P2       -29.2942    10.7098    -0.3229 H            1 COA501   0.0000
    75 H4P        -30.9741    10.0344    -2.2963 H            1 COA501   0.0000
    76 H3P1       -32.5837     8.0771    -1.1648 H            1 COA501   0.0000
    77 H3P2       -31.7477     7.3650    -2.3733 H            1 COA501   0.0000
    78 H2P1       -33.1015     9.8836    -2.8079 H            1 COA501   0.0000
    79 H2P2       -33.8756     8.4704    -3.0733 H            1 COA501   0.0000
    80 H1P        -31.9522     9.6608    -4.9744 H            1 COA501   0.0000
@<TRIPOS>BOND
     1    1    2      ar
     2    1    6      ar
     3    2    3      ar
     4    3    4      ar
     5    4    5      ar
     6    4   10       1
     7    5    6      ar
     8    5    8       1
     9    6    7       1
    10    8    9       2
    11    9   10       1
    12   10   11       1
    13   11   12       1
    14   11   21       1
    15   12   13       1
    16   12   14       1
    17   14   15       1
    18   14   20       1
    19   15   16       1
    20   16   17      ar
    21   16   18      ar
    22   16   19      ar
    23   20   21       1
    24   20   22       1
    25   22   23       1
    26   23   24       1
    27   24   25      ar
    28   24   26      ar
    29   24   27       1
    30   27   28       1
    31   28   29      ar
    32   28   30      ar
    33   28   31       1
    34   31   33       1
    35   32   33       1
    36   32   34       1
    37   32   35       1
    38   32   36       1
    39   36   37       1
    40   36   38       1
    41   38   39       2
    42   38   40      am
    43   40   41       1
    44   41   42       1
    45   42   43       1
    46   43   44       2
    47   43   45      am
    48   45   46       1
    49   46   47       1
    50   47   48       1
    51    2   49       1
    52    7   50       1
    53    7   51       1
    54    9   52       1
    55   11   53       1
    56   12   54       1
    57   13   55       1
    58   14   56       1
    59   48   80       1
    60   47   79       1
    61   20   57       1
    62   22   58       1
    63   22   59       1
    64   47   78       1
    65   46   77       1
    66   33   60       1
    67   33   61       1
    68   34   62       1
    69   34   63       1
    70   34   64       1
    71   35   65       1
    72   35   66       1
    73   35   67       1
    74   36   68       1
    75   37   69       1
    76   40   70       1
    77   41   71       1
    78   41   72       1
    79   42   73       1
    80   42   74       1
    81   45   75       1
    82   46   76       1
@<TRIPOS>SUBSTRUCTURE
     1 COA501      1 GROUP             4 A     COA     0 **** COA A 501
