@<TRIPOS>MOLECULE
4tvj_09L_1_ligand
   55    59     1     0     0
SMALL
NO_CHARGES


@<TRIPOS>ATOM
     1 CAJ         16.4020    -7.5350    12.6810 C.3          1 09L601   0.0000
     2 CAK         17.6490    -7.4050    13.2830 C.3          1 09L601   0.0000
     3 CAI         16.7570    -6.1920    13.2670 C.3          1 09L601   0.0000
     4 CAL         16.2000    -5.8620    14.6610 C.2          1 09L601   0.0000
     5 OAB         15.2570    -6.5140    15.1140 O.2          1 09L601   0.0000
     6 NAE         16.8100    -4.8650    15.3620 N.am         1 09L601   0.0000
     7 CAM         17.9820    -4.1070    14.8650 C.3          1 09L601   0.0000
     8 CAO         19.1900    -4.2450    15.7390 C.3          1 09L601   0.0000
     9 CAN         16.3570    -4.6520    16.7490 C.3          1 09L601   0.0000
    10 CAP         17.5990    -4.8690    17.5860 C.3          1 09L601   0.0000
    11 NAF         18.6990    -4.0190    17.1200 N.am         1 09L601   0.0000
    12 CAQ         19.0550    -2.9570    17.8950 C.2          1 09L601   0.0000
    13 OAC         18.5530    -2.8790    19.0210 O.2          1 09L601   0.0000
    14 CAR         20.1040    -2.0070    17.5910 C.ar         1 09L601   0.0000
    15 CAS         19.8210    -0.6330    17.5700 C.ar         1 09L601   0.0000
    16 CAU         21.4230    -2.4090    17.3800 C.ar         1 09L601   0.0000
    17 FAA         21.7420    -3.7090    17.3940 F            1 09L601   0.0000
    18 CAX         22.4100    -1.4750    17.1640 C.ar         1 09L601   0.0000
    19 CAW         22.1250    -0.0880    17.1600 C.ar         1 09L601   0.0000
    20 CAT         20.8210     0.3620    17.3710 C.ar         1 09L601   0.0000
    21 CAV         20.5120     1.7440    17.3360 C.3          1 09L601   0.0000
    22 CAY         19.4670     2.1180    18.3150 C.2          1 09L601   0.0000
    23 CAZ         19.7400     2.4230    19.6360 C.ar         1 09L601   0.0000
    24 CBB         21.0490     2.3710    20.1340 C.ar         1 09L601   0.0000
    25 CBE         21.3450     2.6590    21.4580 C.ar         1 09L601   0.0000
    26 CBF         20.2880     2.9740    22.3220 C.ar         1 09L601   0.0000
    27 CBD         18.9830     3.0070    21.8430 C.ar         1 09L601   0.0000
    28 CBA         18.6890     2.7420    20.5210 C.ar         1 09L601   0.0000
    29 CBC         17.3780     2.8200    20.0520 C.2          1 09L601   0.0000
    30 OAD         16.4090     3.1240    20.7760 O.2          1 09L601   0.0000
    31 NAH         17.1870     2.5200    18.7000 N.pl3        1 09L601   0.0000
    32 NAG         18.2000     2.2090    17.8930 N.2          1 09L601   0.0000
    33 HAJ1        15.6982    -8.0943    13.1190 H            1 09L601   0.0000
    34 HAJ2        16.3415    -7.6402    11.6884 H            1 09L601   0.0000
    35 HAK1        18.4737    -7.4185    12.7175 H            1 09L601   0.0000
    36 HAK2        17.8304    -7.8726    14.1481 H            1 09L601   0.0000
    37 HAI         16.9787    -5.4396    12.6467 H            1 09L601   0.0000
    38 HAM1        17.7358    -3.1391    14.8142 H            1 09L601   0.0000
    39 HAM2        18.2117    -4.4410    13.9508 H            1 09L601   0.0000
    40 HAO1        19.8787    -3.5621    15.4956 H            1 09L601   0.0000
    41 HAO2        19.5830    -5.1604    15.6520 H            1 09L601   0.0000
    42 HAN1        15.6452    -5.3103    16.9941 H            1 09L601   0.0000
    43 HAN2        16.0072    -3.7228    16.8686 H            1 09L601   0.0000
    44 HAP1        17.8753    -5.8278    17.5195 H            1 09L601   0.0000
    45 HAP2        17.3944    -4.6464    18.5392 H            1 09L601   0.0000
    46 HAS         18.8743    -0.3387    17.7007 H            1 09L601   0.0000
    47 HAX         23.3485    -1.7822    17.0065 H            1 09L601   0.0000
    48 HAW         22.8607     0.5714    17.0054 H            1 09L601   0.0000
    49 HAV1        20.1896     1.9770    16.4185 H            1 09L601   0.0000
    50 HAV2        21.3421     2.2631    17.5395 H            1 09L601   0.0000
    51 HBB         21.7929     2.1183    19.5153 H            1 09L601   0.0000
    52 HBE         22.2890     2.6422    21.7876 H            1 09L601   0.0000
    53 HBF         20.4722     3.1753    23.2840 H            1 09L601   0.0000
    54 HBD         18.2384     3.2285    22.4727 H            1 09L601   0.0000
    55 HAH         16.2595     2.5395    18.3266 H            1 09L601   0.0000
@<TRIPOS>BOND
     1    1    2       1
     2    1    3       1
     3    2    3       1
     4    3    4       1
     5    4    5       2
     6    4    6      am
     7    6    7       1
     8    6    9       1
     9    7    8       1
    10    8   11       1
    11    9   10       1
    12   10   11       1
    13   11   12      am
    14   12   13       2
    15   12   14       1
    16   14   15      ar
    17   14   16      ar
    18   15   20      ar
    19   16   17       1
    20   16   18      ar
    21   18   19      ar
    22   19   20      ar
    23   20   21       1
    24   21   22       1
    25   22   23       1
    26   22   32       2
    27   23   24      ar
    28   23   28      ar
    29   24   25      ar
    30   25   26      ar
    31   26   27      ar
    32   27   28      ar
    33   28   29       1
    34   29   30       2
    35   29   31       1
    36   31   32       1
    37    1   33       1
    38    1   34       1
    39    2   35       1
    40    2   36       1
    41    3   37       1
    42    7   38       1
    43    7   39       1
    44    8   40       1
    45    8   41       1
    46    9   42       1
    47    9   43       1
    48   10   44       1
    49   10   45       1
    50   15   46       1
    51   18   47       1
    52   19   48       1
    53   21   49       1
    54   21   50       1
    55   24   51       1
    56   25   52       1
    57   26   53       1
    58   27   54       1
    59   31   55       1
@<TRIPOS>SUBSTRUCTURE
     1 09L601      1 GROUP             4 A     09L     0 **** 09L A 601
