@<TRIPOS>MOLECULE
3ou7_SAM_2_ligand
   50    52     1     0     0
SMALL
NO_CHARGES


@<TRIPOS>ATOM
     1 N           20.7330   -53.1340     8.4450 N.4          1 SAM300   1.0000
     2 CA          21.0760   -54.5000     8.7520 C.3          1 SAM300   0.0000
     3 C           22.1360   -54.1300     9.7510 C.2          1 SAM300   0.0000
     4 O           22.5830   -53.0040     9.4810 O.co2        1 SAM300   0.0000
     5 OXT         22.4880   -54.8230    10.7290 O.co2        1 SAM300  -1.0000
     6 CB          21.7130   -55.1720     7.5260 C.3          1 SAM300   0.0000
     7 CG          20.8670   -56.0240     6.5470 C.3          1 SAM300   0.0000
     8 SD          20.8380   -55.2600     4.8770 S.3          1 SAM300   1.0000
     9 CE          21.3370   -56.6790     3.8730 C.3          1 SAM300   0.0000
    10 C5'         19.0740   -55.4570     4.9550 C.3          1 SAM300   0.0000
    11 C4'         18.6060   -54.0590     5.0770 C.3          1 SAM300   0.0000
    12 O4'         18.6090   -53.6270     3.7310 O.3          1 SAM300   0.0000
    13 C3'         17.1980   -54.1440     5.5760 C.3          1 SAM300   0.0000
    14 O3'         17.1040   -53.1320     6.5520 O.3          1 SAM300   0.0000
    15 C2'         16.4060   -53.9390     4.2780 C.3          1 SAM300   0.0000
    16 O2'         15.2960   -53.1600     4.4950 O.3          1 SAM300   0.0000
    17 C1'         17.3490   -53.0510     3.4530 C.3          1 SAM300   0.0000
    18 N9          17.0420   -53.0150     1.9950 N.pl3        1 SAM300   0.0000
    19 C8          16.7990   -54.0570     1.1360 C.2          1 SAM300   0.0000
    20 N7          16.5880   -53.5610    -0.1160 N.2          1 SAM300   0.0000
    21 C5          16.6530   -52.2190    -0.0240 C.ar         1 SAM300   0.0000
    22 C6          16.4870   -51.2280    -0.9670 C.ar         1 SAM300   0.0000
    23 N6          16.2380   -51.4830    -2.2520 N.pl3        1 SAM300   0.0000
    24 N1          16.6950   -49.9590    -0.5720 N.ar         1 SAM300   0.0000
    25 C2          16.9840   -49.6420     0.7310 C.ar         1 SAM300   0.0000
    26 N3          17.1020   -50.6180     1.6790 N.ar         1 SAM300   0.0000
    27 C4          16.9690   -51.8850     1.2730 C.ar         1 SAM300   0.0000
    28 H1          21.2989   -52.8106     7.6866 H            1 SAM300   0.0000
    29 H2          19.7683   -53.0825     8.1866 H            1 SAM300   0.0000
    30 HA          20.3202   -55.0227     9.1465 H            1 SAM300   0.0000
    31 HB1         22.4333   -55.7720     7.8741 H            1 SAM300   0.0000
    32 HB2         22.1230   -54.4395     6.9825 H            1 SAM300   0.0000
    33 HG1         19.9314   -56.0899     6.8938 H            1 SAM300   0.0000
    34 HG2         21.2637   -56.9396     6.4820 H            1 SAM300   0.0000
    35 HE1         21.3679   -56.4115     2.9099 H            1 SAM300   0.0000
    36 HE2         22.2425   -56.9898     4.1618 H            1 SAM300   0.0000
    37 HE3         20.6765   -57.4203     3.9921 H            1 SAM300   0.0000
    38 H5'1        18.8050   -55.9997     5.7507 H            1 SAM300   0.0000
    39 H5'2        18.7204   -55.8861     4.1238 H            1 SAM300   0.0000
    40 H4'         19.1934   -53.5027     5.6647 H            1 SAM300   0.0000
    41 H3'         17.0113   -55.0430     5.9721 H            1 SAM300   0.0000
    42 H15         17.2967   -52.2451     6.1322 H            1 SAM300   0.0000
    43 H2'         16.1884   -54.8005     3.8192 H            1 SAM300   0.0000
    44 H17         15.5790   -52.2658     4.8420 H            1 SAM300   0.0000
    45 H1'         17.3258   -52.1198     3.8169 H            1 SAM300   0.0000
    46 H19         16.7798   -55.0246     1.3879 H            1 SAM300   0.0000
    47 H20         16.1252   -50.7287    -2.8987 H            1 SAM300   0.0000
    48 H21         16.1641   -52.4286    -2.5689 H            1 SAM300   0.0000
    49 H22         17.1098   -48.6843     0.9899 H            1 SAM300   0.0000
    50 H23         20.8938   -52.5612     9.2488 H            1 SAM300   0.0000
@<TRIPOS>BOND
     1    1    2       1
     2    2    3       1
     3    2    6       1
     4    3    4      ar
     5    3    5      ar
     6    6    7       1
     7    7    8       1
     8    8    9       1
     9    8   10       1
    10   10   11       1
    11   11   12       1
    12   11   13       1
    13   12   17       1
    14   13   14       1
    15   13   15       1
    16   15   16       1
    17   15   17       1
    18   17   18       1
    19   18   19       1
    20   18   27       1
    21   19   20       2
    22   20   21       1
    23   21   22      ar
    24   21   27      ar
    25   22   23       1
    26   22   24      ar
    27   24   25      ar
    28   25   26      ar
    29   26   27      ar
    30    1   28       1
    31    1   29       1
    32    2   30       1
    33    1   50       1
    34    6   31       1
    35    6   32       1
    36    7   33       1
    37    7   34       1
    38    9   35       1
    39    9   36       1
    40    9   37       1
    41   10   38       1
    42   10   39       1
    43   11   40       1
    44   13   41       1
    45   14   42       1
    46   15   43       1
    47   16   44       1
    48   17   45       1
    49   19   46       1
    50   23   47       1
    51   23   48       1
    52   25   49       1
@<TRIPOS>SUBSTRUCTURE
     1 SAM300      1 GROUP             4 A     SAM     0 **** SAM A 300
