@<TRIPOS>MOLECULE
3sop_GDP_1_ligand
   40    42     1     0     0
SMALL
NO_CHARGES


@<TRIPOS>ATOM
     1 PB          15.9660    43.7630    11.9040 P.3          1 GDP402   0.0000
     2 O1B         16.9440    44.2850    10.8800 O.co2        1 GDP402   0.0000
     3 O2B         16.1240    42.2670    12.0290 O.co2        1 GDP402  -1.0000
     4 O3B         16.2410    44.4080    13.2400 O.co2        1 GDP402  -1.0000
     5 O3A         14.4650    44.1070    11.4390 O.3          1 GDP402   0.0000
     6 PA          14.0860    44.1400     9.8750 P.3          1 GDP402   0.0000
     7 O1A         15.3310    44.0290     9.0290 O.co2        1 GDP402   0.0000
     8 O2A         13.3220    45.3970     9.5390 O.co2        1 GDP402  -1.0000
     9 O5'         13.1520    42.8440     9.6820 O.3          1 GDP402   0.0000
    10 C5'         12.2740    42.4260    10.7250 C.3          1 GDP402   0.0000
    11 C4'         11.0310    41.7900    10.1170 C.3          1 GDP402   0.0000
    12 O4'          9.9060    42.0210    10.9700 O.3          1 GDP402   0.0000
    13 C3'         10.7140    42.3890     8.7570 C.3          1 GDP402   0.0000
    14 O3'         10.7110    41.3620     7.7610 O.3          1 GDP402   0.0000
    15 C2'          9.3330    43.0000     8.8730 C.3          1 GDP402   0.0000
    16 O2'          8.4530    42.4090     7.9130 O.3          1 GDP402   0.0000
    17 C1'          8.8490    42.6940    10.2810 C.3          1 GDP402   0.0000
    18 N9           8.5210    43.9580    10.9850 N.pl3        1 GDP402   0.0000
    19 C8           9.1900    45.1200    10.8720 C.2          1 GDP402   0.0000
    20 N7           8.6330    46.0830    11.6490 N.2          1 GDP402   0.0000
    21 C5           7.5800    45.5330    12.2800 C.2          1 GDP402   0.0000
    22 C6           6.5540    45.9920    13.2460 C.2          1 GDP402   0.0000
    23 O6           6.5480    47.1680    13.6670 O.2          1 GDP402   0.0000
    24 N1           5.6350    45.1080    13.6530 N.pl3        1 GDP402   0.0000
    25 C2           5.6170    43.8350    13.2170 C.2          1 GDP402   0.0000
    26 N2           4.6520    43.0040    13.6790 N.pl3        1 GDP402   0.0000
    27 N3           6.5250    43.3470    12.3330 N.2          1 GDP402   0.0000
    28 C4           7.5100    44.1330    11.8390 C.2          1 GDP402   0.0000
    29 H5'1        12.0084    43.2180    11.2747 H            1 GDP402   0.0000
    30 H5'2        12.7401    41.7584    11.3057 H            1 GDP402   0.0000
    31 H4'         11.1764    40.8054    10.0197 H            1 GDP402   0.0000
    32 H3'         11.3849    43.0933     8.5249 H            1 GDP402   0.0000
    33 H5           9.8098    41.3184     7.3298 H            1 GDP402   0.0000
    34 H2'          9.3812    43.9890     8.7328 H            1 GDP402   0.0000
    35 H7           8.4879    42.9329     7.0619 H            1 GDP402   0.0000
    36 H1'          8.0405    42.1068    10.2424 H            1 GDP402   0.0000
    37 H9           9.9927    45.2561    10.2913 H            1 GDP402   0.0000
    38 H10          4.9366    45.4042    14.3046 H            1 GDP402   0.0000
    39 H11          4.6195    42.0540    13.3685 H            1 GDP402   0.0000
    40 H12          3.9721    43.3406    14.3305 H            1 GDP402   0.0000
@<TRIPOS>BOND
     1    1    2      ar
     2    1    3      ar
     3    1    4      ar
     4    1    5       1
     5    5    6       1
     6    6    7      ar
     7    6    8      ar
     8    6    9       1
     9    9   10       1
    10   10   11       1
    11   11   12       1
    12   11   13       1
    13   12   17       1
    14   13   14       1
    15   13   15       1
    16   15   16       1
    17   15   17       1
    18   17   18       1
    19   18   19       1
    20   18   28       1
    21   19   20       2
    22   20   21       1
    23   21   22       1
    24   21   28       2
    25   22   23       2
    26   22   24       1
    27   24   25       1
    28   25   26       1
    29   25   27       2
    30   27   28       1
    31   26   40       1
    32   26   39       1
    33   24   38       1
    34   10   29       1
    35   10   30       1
    36   11   31       1
    37   13   32       1
    38   14   33       1
    39   15   34       1
    40   16   35       1
    41   17   36       1
    42   19   37       1
@<TRIPOS>SUBSTRUCTURE
     1 GDP402      1 GROUP             4 B     GDP     0 **** GDP B 402
