@<TRIPOS>MOLECULE
2x7f_824_5_ligand
   37    41     1     0     0
SMALL
NO_CHARGES


@<TRIPOS>ATOM
     1 O3          30.7510    12.1390    12.6250 O.3          1 824500   0.0000
     2 C19         30.0050    13.3270    12.4180 C.ar         1 824500   0.0000
     3 C20         30.3520    13.9740    11.2680 C.ar         1 824500   0.0000
     4 C18         29.7030    15.1820    10.8560 C.ar         1 824500   0.0000
     5 C16         28.6070    15.7730    11.6590 C.ar         1 824500   0.0000
     6 C15         28.2260    15.0460    12.9730 C.ar         1 824500   0.0000
     7 C17         28.9390    13.8070    13.4240 C.ar         1 824500   0.0000
     8 C13         27.1600    15.8300    13.5150 C.ar         1 824500   0.0000
     9 C14         26.9640    16.9150    12.5350 C.ar         1 824500   0.0000
    10 N2          27.8220    16.8460    11.5140 N.pl3        1 824500   0.0000
    11 C4          26.4120    15.6840    14.6700 C.ar         1 824500   0.0000
    12 C5          26.3780    14.8040    15.6730 C.2          1 824500   0.0000
    13 O1          27.0410    13.9300    15.8300 O.2          1 824500   0.0000
    14 C3          25.3630    16.6770    14.9290 C.ar         1 824500   0.0000
    15 C6          24.8400    16.2230    16.0980 C.2          1 824500   0.0000
    16 O2          23.9610    16.6660    16.6840 O.2          1 824500   0.0000
    17 N1          25.4210    15.0870    16.5730 N.am         1 824500   0.0000
    18 C2          25.1670    17.7850    13.9590 C.ar         1 824500   0.0000
    19 C1          25.9800    17.8800    12.7600 C.ar         1 824500   0.0000
    20 C7          24.2510    18.8430    14.0670 C.ar         1 824500   0.0000
    21 C8          23.3410    19.3820    13.2190 C.ar         1 824500   0.0000
    22 C9          22.5280    20.4590    13.6460 C.ar         1 824500   0.0000
    23 C10         22.6040    21.0330    14.9080 C.ar         1 824500   0.0000
    24 C11         23.5440    20.5660    15.8550 C.ar         1 824500   0.0000
    25 C12         24.3800    19.4520    15.4280 C.ar         1 824500   0.0000
    26 H1          30.5843    11.5789    13.4365 H            1 824500   0.0000
    27 H2          31.0798    13.5940    10.6970 H            1 824500   0.0000
    28 H3          29.9941    15.6340    10.0128 H            1 824500   0.0000
    29 H4          28.7439    13.3405    14.2868 H            1 824500   0.0000
    30 H5          27.8702    17.4972    10.7566 H            1 824500   0.0000
    31 H6          25.1886    14.5791    17.4024 H            1 824500   0.0000
    32 H7          25.8378    18.6235    12.1066 H            1 824500   0.0000
    33 H8          23.2442    19.0189    12.2923 H            1 824500   0.0000
    34 H9          21.8593    20.8284    13.0007 H            1 824500   0.0000
    35 H10         21.9884    21.7833    15.1491 H            1 824500   0.0000
    36 H11         23.6299    20.9756    16.7632 H            1 824500   0.0000
    37 H12         25.0595    19.0837    16.0625 H            1 824500   0.0000
@<TRIPOS>BOND
     1    1    2       1
     2    2    3      ar
     3    2    7      ar
     4    3    4      ar
     5    4    5      ar
     6    5    6      ar
     7    5   10       1
     8    6    7      ar
     9    6    8       1
    10    8    9      ar
    11    8   11      ar
    12    9   10       1
    13    9   19      ar
    14   11   12       1
    15   11   14      ar
    16   12   13       2
    17   12   17      am
    18   14   15       1
    19   14   18      ar
    20   15   16       2
    21   15   17      am
    22   18   19      ar
    23   18   20       1
    24   20   21      ar
    25   20   25      ar
    26   21   22      ar
    27   22   23      ar
    28   23   24      ar
    29   24   25      ar
    30    1   26       1
    31    3   27       1
    32    4   28       1
    33    7   29       1
    34   10   30       1
    35   17   31       1
    36   19   32       1
    37   21   33       1
    38   22   34       1
    39   23   35       1
    40   24   36       1
    41   25   37       1
@<TRIPOS>SUBSTRUCTURE
     1 824500      1 GROUP             4 E     824     0 **** 824 E 500
