@<TRIPOS>MOLECULE
4j56_FAD_1_ligand
   84    89     1     0     0
SMALL
NO_CHARGES


@<TRIPOS>ATOM
     1 PA         -30.8210  -109.4980   196.0860 P.3          1 FAD600   0.0000
     2 O1A        -30.3110  -108.1980   196.7030 O.co2        1 FAD600   0.0000
     3 O2A        -32.0950  -109.8500   196.8070 O.co2        1 FAD600  -1.0000
     4 O5B        -29.8410  -110.7190   196.3700 O.3          1 FAD600   0.0000
     5 C5B        -28.4870  -110.6520   196.0590 C.3          1 FAD600   0.0000
     6 C4B        -27.5180  -111.4010   196.9000 C.3          1 FAD600   0.0000
     7 O4B        -26.2350  -111.1420   196.3970 O.3          1 FAD600   0.0000
     8 C3B        -27.5420  -110.9720   198.3100 C.3          1 FAD600   0.0000
     9 O3B        -27.8000  -112.1200   199.1620 O.3          1 FAD600   0.0000
    10 C2B        -26.2960  -110.4350   198.5830 C.3          1 FAD600   0.0000
    11 O2B        -25.9070  -110.8290   199.8830 O.3          1 FAD600   0.0000
    12 C1B        -25.3830  -111.0240   197.5070 C.3          1 FAD600   0.0000
    13 N9A        -24.0830  -110.4150   197.0820 N.pl3        1 FAD600   0.0000
    14 C8A        -23.7190  -109.1610   196.7440 C.2          1 FAD600   0.0000
    15 N7A        -22.4120  -109.1670   196.3840 N.2          1 FAD600   0.0000
    16 C5A        -21.9450  -110.4410   196.4810 C.ar         1 FAD600   0.0000
    17 C6A        -20.7070  -111.0800   196.2530 C.ar         1 FAD600   0.0000
    18 N6A        -19.5610  -110.3620   195.8040 N.pl3        1 FAD600   0.0000
    19 N1A        -20.5700  -112.3980   196.4430 N.ar         1 FAD600   0.0000
    20 C2A        -21.6140  -113.1190   196.8570 C.ar         1 FAD600   0.0000
    21 N3A        -22.8070  -112.5650   197.0970 N.ar         1 FAD600   0.0000
    22 C4A        -23.0100  -111.2360   196.9140 C.ar         1 FAD600   0.0000
    23 N1         -40.0660  -106.7500   196.9450 N.2          1 FAD600   0.0000
    24 C2         -41.3080  -107.2310   196.7450 C.2          1 FAD600   0.0000
    25 O2         -41.6350  -107.8390   195.4980 O.2          1 FAD600   0.0000
    26 N3         -42.2220  -107.1340   197.7310 N.pl3        1 FAD600   0.0000
    27 C4         -41.9030  -106.5620   198.9120 C.2          1 FAD600   0.0000
    28 O4         -42.8750  -106.5000   199.9070 O.2          1 FAD600   0.0000
    29 C4X        -40.6040  -106.0570   199.1420 C.2          1 FAD600   0.0000
    30 N5         -40.2440  -105.4810   200.3160 N.2          1 FAD600   0.0000
    31 C5X        -38.9770  -104.9970   200.4770 C.ar         1 FAD600   0.0000
    32 C6         -38.6230  -104.4070   201.6920 C.ar         1 FAD600   0.0000
    33 C7         -37.3490  -103.9100   201.9050 C.ar         1 FAD600   0.0000
    34 C7M        -36.9430  -103.2760   203.2110 C.3          1 FAD600   0.0000
    35 C8         -36.4230  -103.9900   200.8910 C.ar         1 FAD600   0.0000
    36 C8M        -35.0510  -103.4590   201.1040 C.3          1 FAD600   0.0000
    37 C9         -36.7670  -104.5770   199.6800 C.ar         1 FAD600   0.0000
    38 C9A        -38.0400  -105.0920   199.4540 C.ar         1 FAD600   0.0000
    39 N10        -38.3970  -105.6760   198.2640 N.pl3        1 FAD600   0.0000
    40 C10        -39.6700  -106.1590   198.1090 C.2          1 FAD600   0.0000
    41 C1'        -37.4830  -105.8170   197.1070 C.3          1 FAD600   0.0000
    42 C2'        -36.8390  -107.1710   196.9140 C.3          1 FAD600   0.0000
    43 O2'        -36.3590  -107.5470   198.1630 O.3          1 FAD600   0.0000
    44 C3'        -35.7060  -107.2050   195.9110 C.3          1 FAD600   0.0000
    45 O3'        -36.1280  -106.6460   194.7380 O.3          1 FAD600   0.0000
    46 C4'        -35.2490  -108.6040   195.5830 C.3          1 FAD600   0.0000
    47 O4'        -34.7340  -109.2470   196.7080 O.3          1 FAD600   0.0000
    48 C5'        -34.1650  -108.5890   194.5430 C.3          1 FAD600   0.0000
    49 O5'        -33.4080  -109.7410   194.4140 O.3          1 FAD600   0.0000
    50 P          -32.1130  -109.6930   193.5210 P.3          1 FAD600   0.0000
    51 O1P        -31.9040  -111.0300   192.8090 O.co2        1 FAD600   0.0000
    52 O2P        -32.3930  -108.5990   192.4830 O.co2        1 FAD600  -1.0000
    53 O3P        -30.9170  -109.2540   194.5010 O.3          1 FAD600   0.0000
    54 H5B1       -28.2247  -109.6878   196.0974 H            1 FAD600   0.0000
    55 H5B2       -28.3841  -110.9884   195.1229 H            1 FAD600   0.0000
    56 H4B        -27.7102  -112.3807   196.8431 H            1 FAD600   0.0000
    57 H3B        -28.2504  -110.2793   198.4451 H            1 FAD600   0.0000
    58 H5         -27.4331  -112.9443   198.7308 H            1 FAD600   0.0000
    59 H2B        -26.3217  -109.4378   198.5126 H            1 FAD600   0.0000
    60 H7         -26.7203  -110.9484   200.4525 H            1 FAD600   0.0000
    61 H1B        -25.1727  -111.9571   197.7987 H            1 FAD600   0.0000
    62 H8A        -24.3154  -108.3584   196.7568 H            1 FAD600   0.0000
    63 H6A1       -18.6977  -110.8430   195.6514 H            1 FAD600   0.0000
    64 H6A2       -19.6201  -109.3771   195.6415 H            1 FAD600   0.0000
    65 H2A        -21.5006  -114.1034   196.9918 H            1 FAD600   0.0000
    66 H13        -43.1456  -107.4892   197.5865 H            1 FAD600   0.0000
    67 H14        -39.3031  -104.3423   202.4223 H            1 FAD600   0.0000
    68 H7M1       -35.9877  -102.9852   203.1576 H            1 FAD600   0.0000
    69 H7M2       -37.5236  -102.4819   203.3908 H            1 FAD600   0.0000
    70 H7M3       -37.0483  -103.9403   203.9510 H            1 FAD600   0.0000
    71 H8M1       -34.5086  -103.5949   200.2750 H            1 FAD600   0.0000
    72 H8M2       -35.1003  -102.4825   201.3138 H            1 FAD600   0.0000
    73 H8M3       -34.6211  -103.9424   201.8666 H            1 FAD600   0.0000
    74 H21        -36.0830  -104.6309   198.9525 H            1 FAD600   0.0000
    75 H1'1       -36.7502  -105.1453   197.2157 H            1 FAD600   0.0000
    76 H1'2       -38.0058  -105.6091   196.2803 H            1 FAD600   0.0000
    77 H2'        -37.5410  -107.8237   196.6290 H            1 FAD600   0.0000
    78 H25        -35.5512  -108.1253   198.0494 H            1 FAD600   0.0000
    79 H3'        -34.9332  -106.6802   196.2678 H            1 FAD600   0.0000
    80 H27        -35.3511  -106.2223   194.2722 H            1 FAD600   0.0000
    81 H4'        -36.0267  -109.1279   195.2356 H            1 FAD600   0.0000
    82 H29        -33.7813  -109.5005   196.5402 H            1 FAD600   0.0000
    83 H5'1       -33.5410  -107.8404   194.7672 H            1 FAD600   0.0000
    84 H5'2       -34.5964  -108.4099   193.6588 H            1 FAD600   0.0000
@<TRIPOS>BOND
     1    1    2      ar
     2    1    3      ar
     3    1    4       1
     4    1   53       1
     5    4    5       1
     6    5    6       1
     7    6    7       1
     8    6    8       1
     9    7   12       1
    10    8    9       1
    11    8   10       1
    12   10   11       1
    13   10   12       1
    14   12   13       1
    15   13   14       1
    16   13   22       1
    17   14   15       2
    18   15   16       1
    19   16   17      ar
    20   16   22      ar
    21   17   18       1
    22   17   19      ar
    23   19   20      ar
    24   20   21      ar
    25   21   22      ar
    26   23   24       1
    27   23   40       2
    28   24   25       2
    29   24   26       1
    30   26   27       1
    31   27   28       2
    32   27   29       1
    33   29   30       2
    34   29   40       1
    35   30   31       1
    36   31   32      ar
    37   31   38      ar
    38   32   33      ar
    39   33   34       1
    40   33   35      ar
    41   35   36       1
    42   35   37      ar
    43   37   38      ar
    44   38   39       1
    45   39   40       1
    46   39   41       1
    47   41   42       1
    48   42   43       1
    49   42   44       1
    50   44   45       1
    51   44   46       1
    52   46   47       1
    53   46   48       1
    54   48   49       1
    55   49   50       1
    56   50   51      ar
    57   50   52      ar
    58   50   53       1
    59   48   84       1
    60    5   54       1
    61    5   55       1
    62    6   56       1
    63    8   57       1
    64    9   58       1
    65   10   59       1
    66   11   60       1
    67   12   61       1
    68   14   62       1
    69   18   63       1
    70   18   64       1
    71   20   65       1
    72   26   66       1
    73   32   67       1
    74   34   68       1
    75   34   69       1
    76   34   70       1
    77   36   71       1
    78   36   72       1
    79   36   73       1
    80   37   74       1
    81   41   75       1
    82   41   76       1
    83   42   77       1
    84   43   78       1
    85   44   79       1
    86   45   80       1
    87   46   81       1
    88   47   82       1
    89   48   83       1
@<TRIPOS>SUBSTRUCTURE
     1 FAD600      1 GROUP             4 A     FAD     0 **** FAD A 600
