@<TRIPOS>MOLECULE
5fe1_12Q_2_ligand
   21    22     1     0     0
SMALL
NO_CHARGES


@<TRIPOS>ATOM
     1 CAH         22.3040    -2.9600   -20.7010 C.3          1 12Q901   0.0000
     2 NAC         21.8720    -1.7050   -21.3990 N.pl3        1 12Q901   0.0000
     3 CAA         21.3740    -0.6410   -20.7050 C.ar         1 12Q901   0.0000
     4 CAD         21.2390    -0.6650   -19.3030 C.ar         1 12Q901   0.0000
     5 CAI         20.7350     0.4380   -18.6220 C.ar         1 12Q901   0.0000
     6 CAK         20.3450     1.5810   -19.3230 C.ar         1 12Q901   0.0000
     7 CAF         20.4540     1.6350   -20.7110 C.ar         1 12Q901   0.0000
     8 CAB         20.9690     0.5280   -21.3970 C.ar         1 12Q901   0.0000
     9 CAE         21.0790     0.5970   -22.7810 C.2          1 12Q901   0.0000
    10 CAJ         21.5820    -0.5020   -23.4530 C.2          1 12Q901   0.0000
    11 CAG         21.9690    -1.6370   -22.7440 C.2          1 12Q901   0.0000
    12 OAL         22.4180    -2.5830   -23.3780 O.2          1 12Q901   0.0000
    13 HAH1        22.6374    -3.6187   -21.3755 H            1 12Q901   0.0000
    14 HAH2        23.0357    -2.7464   -20.0537 H            1 12Q901   0.0000
    15 HAH3        21.5270    -3.3518   -20.2083 H            1 12Q901   0.0000
    16 HAD         21.5078    -1.4821   -18.7930 H            1 12Q901   0.0000
    17 HAI         20.6515     0.4124   -17.6258 H            1 12Q901   0.0000
    18 HAK         19.9839     2.3687   -18.8238 H            1 12Q901   0.0000
    19 HAF         20.1684     2.4529   -21.2104 H            1 12Q901   0.0000
    20 HAE         20.8017     1.4196   -23.2775 H            1 12Q901   0.0000
    21 HAJ         21.6680    -0.4819   -24.4491 H            1 12Q901   0.0000
@<TRIPOS>BOND
     1    1    2       1
     2    2    3       1
     3    2   11       1
     4    3    4      ar
     5    3    8      ar
     6    4    5      ar
     7    5    6      ar
     8    6    7      ar
     9    7    8      ar
    10    8    9       1
    11    9   10       2
    12   10   11       1
    13   11   12       2
    14    1   13       1
    15    1   14       1
    16    1   15       1
    17    4   16       1
    18    5   17       1
    19    6   18       1
    20    7   19       1
    21    9   20       1
    22   10   21       1
@<TRIPOS>SUBSTRUCTURE
     1 12Q901      1 GROUP             4 B     12Q     0 **** 12Q B 901
