@<TRIPOS>MOLECULE
1rz1_NAD_2_ligand
   70    74     1     0     0
SMALL
NO_CHARGES


@<TRIPOS>ATOM
     1 PA          -1.6600    16.1030    85.1550 P.3          1 NAD1201   0.0000
     2 O1A         -2.0070    17.5260    84.8930 O.co2        1 NAD1201   0.0000
     3 O2A         -2.6930    15.4000    86.0410 O.co2        1 NAD1201  -1.0000
     4 O5B         -1.5030    15.3770    83.7390 O.3          1 NAD1201   0.0000
     5 C5B         -2.3820    14.3720    83.3250 C.3          1 NAD1201   0.0000
     6 C4B         -2.4980    14.4860    81.8170 C.3          1 NAD1201   0.0000
     7 O4B         -3.1090    15.7110    81.4640 O.3          1 NAD1201   0.0000
     8 C3B         -1.1460    14.4430    81.1040 C.3          1 NAD1201   0.0000
     9 O3B         -0.6820    13.1270    80.8840 O.3          1 NAD1201   0.0000
    10 C2B         -1.4560    15.1980    79.8260 C.3          1 NAD1201   0.0000
    11 O2B         -1.9820    14.2960    78.8790 O.3          1 NAD1201   0.0000
    12 C1B         -2.5530    16.1770    80.2340 C.3          1 NAD1201   0.0000
    13 N9A         -1.9970    17.5410    80.3780 N.pl3        1 NAD1201   0.0000
    14 C8A         -1.5940    18.1460    81.5540 C.2          1 NAD1201   0.0000
    15 N7A         -1.1510    19.3880    81.2650 N.2          1 NAD1201   0.0000
    16 C5A         -1.2400    19.5830    79.9300 C.ar         1 NAD1201   0.0000
    17 C6A         -0.9170    20.6630    79.1130 C.ar         1 NAD1201   0.0000
    18 N6A         -0.4100    21.7790    79.6380 N.pl3        1 NAD1201   0.0000
    19 N1A         -1.1350    20.5670    77.7530 N.ar         1 NAD1201   0.0000
    20 C2A         -1.6570    19.4100    77.2030 C.ar         1 NAD1201   0.0000
    21 N3A         -1.9660    18.3330    78.0150 N.ar         1 NAD1201   0.0000
    22 C4A         -1.7690    18.4210    79.3570 C.ar         1 NAD1201   0.0000
    23 O3          -0.1720    15.9190    85.7140 O.3          1 NAD1201   0.0000
    24 PN           0.5650    16.9470    86.7090 P.3          1 NAD1201   0.0000
    25 O1N          1.2190    16.1010    87.7290 O.co2        1 NAD1201   0.0000
    26 O2N         -0.3440    18.0540    87.1110 O.co2        1 NAD1201  -1.0000
    27 O5D          1.7170    17.6010    85.7920 O.3          1 NAD1201   0.0000
    28 C5D          2.5160    18.6160    86.3810 C.3          1 NAD1201   0.0000
    29 C4D          2.6920    19.7940    85.4360 C.3          1 NAD1201   0.0000
    30 O4D          3.2190    19.3340    84.1930 O.3          1 NAD1201   0.0000
    31 C3D          1.3720    20.5110    85.1670 C.3          1 NAD1201   0.0000
    32 O3D          1.5640    21.9190    85.1660 O.3          1 NAD1201   0.0000
    33 C2D          1.0110    20.0430    83.7720 C.3          1 NAD1201   0.0000
    34 O2D          0.2890    21.0020    83.0530 O.3          1 NAD1201   0.0000
    35 C1D          2.3640    19.7300    83.1230 C.3          1 NAD1201   0.0000
    36 N1N          2.1800    18.6880    82.0870 N.ar         1 NAD1201   1.0000
    37 C2N          2.1720    19.0650    80.7820 C.ar         1 NAD1201   0.0000
    38 C3N          1.9850    18.1330    79.7650 C.ar         1 NAD1201   0.0000
    39 C7N          1.9990    18.5980    78.3330 C.2          1 NAD1201   0.0000
    40 O7N          2.2086    19.9633    78.0234 O.2          1 NAD1201   0.0000
    41 N7N          1.8053    17.6876    77.3956 N.am         1 NAD1201   0.0000
    42 C4N          1.8020    16.7910    80.0840 C.ar         1 NAD1201   0.0000
    43 C5N          1.8020    16.4100    81.4280 C.ar         1 NAD1201   0.0000
    44 C6N          1.9870    17.3730    82.4290 C.ar         1 NAD1201   0.0000
    45 H5B1        -3.2779    14.5015    83.7501 H            1 NAD1201   0.0000
    46 H5B2        -2.0208    13.4738    83.5757 H            1 NAD1201   0.0000
    47 H4B         -3.0645    13.7342    81.4795 H            1 NAD1201   0.0000
    48 H3B         -0.4700    14.9514    81.6375 H            1 NAD1201   0.0000
    49 H5          -1.0126    12.8006    79.9985 H            1 NAD1201   0.0000
    50 H2B         -0.6498    15.6735    79.4740 H            1 NAD1201   0.0000
    51 H7          -2.6139    14.7795    78.2732 H            1 NAD1201   0.0000
    52 H1B         -3.2655    16.1842    79.5324 H            1 NAD1201   0.0000
    53 H8A         -1.6254    17.7335    82.4644 H            1 NAD1201   0.0000
    54 H6A1        -0.1803    22.5509    79.0452 H            1 NAD1201   0.0000
    55 H6A2        -0.2595    21.8440    80.6245 H            1 NAD1201   0.0000
    56 H2A         -1.8113    19.3518    76.2167 H            1 NAD1201   0.0000
    57 H5D1         3.4149    18.2371    86.6011 H            1 NAD1201   0.0000
    58 H5D2         2.0738    18.9338    87.2197 H            1 NAD1201   0.0000
    59 H4D          3.3365    20.4421    85.8418 H            1 NAD1201   0.0000
    60 H3D          0.6734    20.2423    85.8301 H            1 NAD1201   0.0000
    61 H17          1.4337    22.2738    86.0918 H            1 NAD1201   0.0000
    62 H2D          0.4725    19.2027    83.8346 H            1 NAD1201   0.0000
    63 H19         -0.3216    20.5442    82.4068 H            1 NAD1201   0.0000
    64 H1D          2.7273    20.5591    82.6981 H            1 NAD1201   0.0000
    65 H2N          2.3027    20.0284    80.5479 H            1 NAD1201   0.0000
    66 H7N1         1.8006    17.9551    76.4321 H            1 NAD1201   0.0000
    67 H7N2         1.6635    16.7308    77.6495 H            1 NAD1201   0.0000
    68 H4N          1.6726    16.1104    79.3629 H            1 NAD1201   0.0000
    69 H5N          1.6700    15.4502    81.6757 H            1 NAD1201   0.0000
    70 H6N          1.9784    17.1023    83.3916 H            1 NAD1201   0.0000
@<TRIPOS>BOND
     1    1    2      ar
     2    1    3      ar
     3    1    4       1
     4    1   23       1
     5    4    5       1
     6    5    6       1
     7    6    7       1
     8    6    8       1
     9    7   12       1
    10    8    9       1
    11    8   10       1
    12   10   11       1
    13   10   12       1
    14   12   13       1
    15   13   14       1
    16   13   22       1
    17   14   15       2
    18   15   16       1
    19   16   17      ar
    20   16   22      ar
    21   17   18       1
    22   17   19      ar
    23   19   20      ar
    24   20   21      ar
    25   21   22      ar
    26   23   24       1
    27   24   25      ar
    28   24   26      ar
    29   24   27       1
    30   27   28       1
    31   28   29       1
    32   29   30       1
    33   29   31       1
    34   30   35       1
    35   31   32       1
    36   31   33       1
    37   33   34       1
    38   33   35       1
    39   35   36       1
    40   36   37      ar
    41   36   44      ar
    42   37   38      ar
    43   38   39       1
    44   38   42      ar
    45   39   40       2
    46   39   41      am
    47   42   43      ar
    48   43   44      ar
    49   44   70       1
    50    5   45       1
    51    5   46       1
    52    6   47       1
    53    8   48       1
    54    9   49       1
    55   10   50       1
    56   11   51       1
    57   12   52       1
    58   14   53       1
    59   18   54       1
    60   18   55       1
    61   20   56       1
    62   43   69       1
    63   28   57       1
    64   28   58       1
    65   29   59       1
    66   31   60       1
    67   32   61       1
    68   33   62       1
    69   34   63       1
    70   35   64       1
    71   37   65       1
    72   41   66       1
    73   41   67       1
    74   42   68       1
@<TRIPOS>SUBSTRUCTURE
     1 NAD1201     1 GROUP             4 A     NAD     0 **** NAD A1201
