@<TRIPOS>MOLECULE
3w77_FMN_2_ligand
   50    52     1     0     0
SMALL
NO_CHARGES


@<TRIPOS>ATOM
     1 N1          32.3200    42.1890    66.1340 N.2          1 FMN301   0.0000
     2 C2          32.4280    43.2600    65.3360 C.2          1 FMN301   0.0000
     3 O2          32.2780    44.3950    65.8480 O.2          1 FMN301   0.0000
     4 N3          32.7080    43.1540    64.0150 N.pl3        1 FMN301   0.0000
     5 C4          32.8840    41.9640    63.4060 C.2          1 FMN301   0.0000
     6 O4          33.1160    41.8920    62.1850 O.2          1 FMN301   0.0000
     7 C4A         32.8080    40.7490    64.1990 C.2          1 FMN301   0.0000
     8 N5          33.0190    39.5150    63.6460 N.2          1 FMN301   0.0000
     9 C5A         32.9060    38.4140    64.4280 C.ar         1 FMN301   0.0000
    10 C6          33.0950    37.1500    63.8430 C.ar         1 FMN301   0.0000
    11 C7          32.9600    36.0050    64.6450 C.ar         1 FMN301   0.0000
    12 C7M         33.1500    34.6420    64.0400 C.3          1 FMN301   0.0000
    13 C8          32.6270    36.1280    66.0780 C.ar         1 FMN301   0.0000
    14 C8M         32.4780    34.9220    66.9450 C.3          1 FMN301   0.0000
    15 C9          32.4360    37.3970    66.6600 C.ar         1 FMN301   0.0000
    16 C9A         32.5450    38.5300    65.8640 C.ar         1 FMN301   0.0000
    17 N10         32.3460    39.8140    66.4230 N.pl3        1 FMN301   0.0000
    18 C10         32.5070    40.9340    65.6230 C.2          1 FMN301   0.0000
    19 C1'         31.9500    40.0360    67.8150 C.3          1 FMN301   0.0000
    20 C2'         30.3960    39.8710    67.7390 C.3          1 FMN301   0.0000
    21 O2'         29.7220    40.8180    66.8530 O.3          1 FMN301   0.0000
    22 C3'         29.7430    39.9030    69.1470 C.3          1 FMN301   0.0000
    23 O3'         30.1690    38.7370    69.8950 O.3          1 FMN301   0.0000
    24 C4'         28.2100    39.9020    69.1400 C.3          1 FMN301   0.0000
    25 O4'         27.8520    39.5810    70.5030 O.3          1 FMN301   0.0000
    26 C5'         27.5800    38.8570    68.2060 C.3          1 FMN301   0.0000
    27 O5'         28.2560    37.5970    68.3570 O.3          1 FMN301   0.0000
    28 P           27.6510    36.5290    69.3760 P.3          1 FMN301   0.0000
    29 O1P         26.2200    36.8000    69.5850 O.co2        1 FMN301   0.0000
    30 O2P         28.4610    36.8440    70.6550 O.co2        1 FMN301  -1.0000
    31 O3P         27.9880    35.1860    68.7880 O.co2        1 FMN301  -1.0000
    32 H1          32.7871    43.9894    63.4712 H            1 FMN301   0.0000
    33 H2          33.3217    37.0674    62.8725 H            1 FMN301   0.0000
    34 H7M1        33.0194    33.9437    64.7438 H            1 FMN301   0.0000
    35 H7M2        32.4825    34.5063    63.3079 H            1 FMN301   0.0000
    36 H7M3        34.0745    34.5693    63.6658 H            1 FMN301   0.0000
    37 H8M1        32.2531    35.2070    67.8768 H            1 FMN301   0.0000
    38 H8M2        31.7453    34.3429    66.5875 H            1 FMN301   0.0000
    39 H8M3        33.3358    34.4081    66.9515 H            1 FMN301   0.0000
    40 H9          32.2246    37.4808    67.6338 H            1 FMN301   0.0000
    41 H1'1        32.2037    40.9528    68.1235 H            1 FMN301   0.0000
    42 H1'2        32.3588    39.3549    68.4224 H            1 FMN301   0.0000
    43 H2'         30.2240    38.9594    67.3657 H            1 FMN301   0.0000
    44 H13         29.6674    40.4320    65.9321 H            1 FMN301   0.0000
    45 H3'         30.0589    40.7219    69.6262 H            1 FMN301   0.0000
    46 H15         29.5281    37.9861    69.7354 H            1 FMN301   0.0000
    47 H4'         27.8715    40.8135    68.9063 H            1 FMN301   0.0000
    48 H17         27.7710    38.5892    70.6016 H            1 FMN301   0.0000
    49 H5'1        27.6623    39.1663    67.2586 H            1 FMN301   0.0000
    50 H5'2        26.6136    38.7449    68.4373 H            1 FMN301   0.0000
@<TRIPOS>BOND
     1    1    2       1
     2    1   18       2
     3    2    3       2
     4    2    4       1
     5    4    5       1
     6    5    6       2
     7    5    7       1
     8    7    8       2
     9    7   18       1
    10    8    9       1
    11    9   10      ar
    12    9   16      ar
    13   10   11      ar
    14   11   12       1
    15   11   13      ar
    16   13   14       1
    17   13   15      ar
    18   15   16      ar
    19   16   17       1
    20   17   18       1
    21   17   19       1
    22   19   20       1
    23   20   21       1
    24   20   22       1
    25   22   23       1
    26   22   24       1
    27   24   25       1
    28   24   26       1
    29   26   27       1
    30   27   28       1
    31   28   29      ar
    32   28   30      ar
    33   28   31      ar
    34    4   32       1
    35   10   33       1
    36   12   34       1
    37   12   35       1
    38   12   36       1
    39   14   37       1
    40   14   38       1
    41   14   39       1
    42   15   40       1
    43   19   41       1
    44   19   42       1
    45   20   43       1
    46   21   44       1
    47   22   45       1
    48   23   46       1
    49   24   47       1
    50   25   48       1
    51   26   49       1
    52   26   50       1
@<TRIPOS>SUBSTRUCTURE
     1 FMN301      1 GROUP             4 B     FMN     0 **** FMN B 301
