@<TRIPOS>MOLECULE
4n4t_2GV_1_ligand
   56    60     1     0     0
SMALL
NO_CHARGES


@<TRIPOS>ATOM
     1 C12         -7.2950    46.6320    28.4240 C.ar         1 2GV1402   0.0000
     2 C13         -7.4840    47.2320    29.7220 C.ar         1 2GV1402   0.0000
     3 C14         -6.6190    46.7990    30.8230 C.ar         1 2GV1402   0.0000
     4 C15         -5.5650    45.7910    30.6860 C.ar         1 2GV1402   0.0000
     5 C16         -5.3840    45.2010    29.3900 C.ar         1 2GV1402   0.0000
     6 C17         -6.2560    45.6300    28.2730 C.ar         1 2GV1402   0.0000
     7 C7          -6.1720    45.0680    26.9140 C.3          1 2GV1402   0.0000
     8 C8          -4.9910    45.5460    26.1540 C.3          1 2GV1402   0.0000
     9 C9          -4.2930    46.8490    26.4120 C.3          1 2GV1402   0.0000
    10 C10         -5.2800    45.4350    24.6970 C.3          1 2GV1402   0.0000
    11 O1          -3.9980    44.3890    26.6200 O.3          1 2GV1402   0.0000
    12 C11         -4.6880    43.1960    26.8960 C.2          1 2GV1402   0.0000
    13 O2          -4.0010    42.1940    27.0070 O.2          1 2GV1402   0.0000
    14 N2          -6.0190    43.5770    26.9710 N.am         1 2GV1402   0.0000
    15 C18         -8.3450    43.0950    26.7280 C.ar         1 2GV1402   0.0000
    16 C19         -6.9900    42.7030    27.0710 C.ar         1 2GV1402   0.0000
    17 C20         -6.5870    41.3870    27.5280 C.ar         1 2GV1402   0.0000
    18 C21         -7.5430    40.3980    27.6550 C.ar         1 2GV1402   0.0000
    19 C5          -8.9290    40.7310    27.3160 C.ar         1 2GV1402   0.0000
    20 C22         -9.3270    42.0750    26.8590 C.ar         1 2GV1402   0.0000
    21 C1          -9.8530    39.6090    27.4280 C.ar         1 2GV1402   0.0000
    22 C23        -11.0320    39.7720    28.2100 C.ar         1 2GV1402   0.0000
    23 C24        -11.9610    38.7200    28.4190 C.ar         1 2GV1402   0.0000
    24 C25        -11.5980    37.4560    27.7780 C.ar         1 2GV1402   0.0000
    25 N3         -10.4590    37.3110    27.0120 N.ar         1 2GV1402   0.0000
    26 C26         -9.5630    38.3140    26.7890 C.ar         1 2GV1402   0.0000
    27 N1         -13.4210    40.3200    29.8140 N.ar         1 2GV1402   0.0000
    28 C2         -14.6240    40.6110    30.4240 C.ar         1 2GV1402   0.0000
    29 C3         -15.7280    39.6590    30.4160 C.ar         1 2GV1402   0.0000
    30 C4         -15.4830    38.3970    29.7250 C.ar         1 2GV1402   0.0000
    31 N5         -14.2650    38.1390    29.1210 N.ar         1 2GV1402   0.0000
    32 C6         -13.1950    39.0690    29.1340 C.ar         1 2GV1402   0.0000
    33 N4         -12.2590    36.3120    27.8890 N.pl3        1 2GV1402   0.0000
    34 H1          -7.8656    46.8997    27.6476 H            1 2GV1402   0.0000
    35 H2          -8.1884    47.9268    29.8672 H            1 2GV1402   0.0000
    36 H3          -6.7565    47.2165    31.7212 H            1 2GV1402   0.0000
    37 H4          -4.9950    45.5248    31.4634 H            1 2GV1402   0.0000
    38 H5          -4.6775    44.5086    29.2434 H            1 2GV1402   0.0000
    39 H6          -7.0047    45.2962    26.4095 H            1 2GV1402   0.0000
    40 H7          -3.5285    46.9494    25.7752 H            1 2GV1402   0.0000
    41 H8          -4.9365    47.6033    26.2819 H            1 2GV1402   0.0000
    42 H9          -3.9488    46.8626    27.3508 H            1 2GV1402   0.0000
    43 H10         -4.4894    45.7551    24.1750 H            1 2GV1402   0.0000
    44 H11         -5.4675    44.4803    24.4662 H            1 2GV1402   0.0000
    45 H12         -6.0771    45.9952    24.4717 H            1 2GV1402   0.0000
    46 H13         -8.5722    44.0191    26.4206 H            1 2GV1402   0.0000
    47 H14         -5.6300    41.1981    27.7482 H            1 2GV1402   0.0000
    48 H15         -7.2963    39.4813    27.9692 H            1 2GV1402   0.0000
    49 H16        -10.2838    42.2685    26.6420 H            1 2GV1402   0.0000
    50 H17        -11.2122    40.6624    28.6280 H            1 2GV1402   0.0000
    51 H18         -8.7512    38.1776    26.2212 H            1 2GV1402   0.0000
    52 H19        -14.7409    41.4928    30.8808 H            1 2GV1402   0.0000
    53 H20        -16.6023    39.8590    30.8582 H            1 2GV1402   0.0000
    54 H21        -16.2067    37.7079    29.6874 H            1 2GV1402   0.0000
    55 H22        -11.9318    35.4970    27.4107 H            1 2GV1402   0.0000
    56 H23        -13.0847    36.2641    28.4511 H            1 2GV1402   0.0000
@<TRIPOS>BOND
     1    1    2      ar
     2    1    6      ar
     3    2    3      ar
     4    3    4      ar
     5    4    5      ar
     6    5    6      ar
     7    6    7       1
     8    7    8       1
     9    7   14       1
    10    8    9       1
    11    8   10       1
    12    8   11       1
    13   11   12       1
    14   12   13       2
    15   12   14      am
    16   14   16       1
    17   15   16      ar
    18   15   20      ar
    19   16   17      ar
    20   17   18      ar
    21   18   19      ar
    22   19   20      ar
    23   19   21       1
    24   21   22      ar
    25   21   26      ar
    26   22   23      ar
    27   23   24      ar
    28   23   32       1
    29   24   25      ar
    30   24   33       1
    31   25   26      ar
    32   27   28      ar
    33   27   32      ar
    34   28   29      ar
    35   29   30      ar
    36   30   31      ar
    37   31   32      ar
    38    1   34       1
    39    2   35       1
    40    3   36       1
    41    4   37       1
    42    5   38       1
    43    7   39       1
    44    9   40       1
    45    9   41       1
    46    9   42       1
    47   10   43       1
    48   10   44       1
    49   10   45       1
    50   15   46       1
    51   17   47       1
    52   18   48       1
    53   20   49       1
    54   22   50       1
    55   26   51       1
    56   28   52       1
    57   29   53       1
    58   30   54       1
    59   33   55       1
    60   33   56       1
@<TRIPOS>SUBSTRUCTURE
     1 2GV1402     1 GROUP             4 A     2GV     0 **** 2GV A1402
