@<TRIPOS>MOLECULE
3v2w_ML5_1_ligand
   49    49     1     0     0
SMALL
USER_CHARGES


@<TRIPOS>ATOM
     1 O4           3.0190    17.2820   -14.2220 O.co2        1 ML51201  -0.5000
     2 P1           3.2070    15.7980   -14.4260 P.3          1 ML51201   0.0000
     3 O2           1.9090    15.0400   -14.6140 O.co2        1 ML51201  -0.5000
     4 O3           4.2630    15.4650   -15.4540 O.co2        1 ML51201  -0.5000
     5 C16          3.8960    15.1750   -12.8640 C.3          1 ML51201   0.0000
     6 C15          4.1710    16.3090   -11.8720 C.3          1 ML51201   0.0000
     7 C14          3.1820    16.3580   -10.7010 C.3          1 ML51201   0.0000
     8 N2           2.0350    15.4190   -10.8710 N.4          1 ML51201   1.0000
     9 C13          3.8860    16.1340    -9.3930 C.2          1 ML51201   0.0000
    10 O1           4.2760    15.0170    -9.1070 O.2          1 ML51201   0.0000
    11 N1           3.9960    17.1980    -8.5890 N.am         1 ML51201   0.0000
    12 C5           4.8580    17.2990    -7.5430 C.ar         1 ML51201   0.0000
    13 C4           4.9610    16.2860    -6.5810 C.ar         1 ML51201   0.0000
    14 C3           5.8340    16.4280    -5.5010 C.ar         1 ML51201   0.0000
    15 C2           6.5690    17.6060    -5.3420 C.ar         1 ML51201   0.0000
    16 C6           5.5870    18.4810    -7.3710 C.ar         1 ML51201   0.0000
    17 C1           6.4580    18.6300    -6.2860 C.ar         1 ML51201   0.0000
    18 C7           7.2400    19.9170    -6.1180 C.3          1 ML51201   0.0000
    19 C8           8.7180    19.6340    -5.8640 C.3          1 ML51201   0.0000
    20 C9           9.4560    20.9070    -5.4600 C.3          1 ML51201   0.0000
    21 C10         10.9480    20.7850    -5.7430 C.3          1 ML51201   0.0000
    22 C11         11.6390    22.1390    -5.6410 C.3          1 ML51201   0.0000
    23 C12         13.1090    22.0440    -5.9860 C.3          1 ML51201   0.0000
    24 H1           4.7535    14.6976   -13.0559 H            1 ML51201   0.0000
    25 H2           3.2440    14.5372   -12.4540 H            1 ML51201   0.0000
    26 H3           4.1206    17.1780   -12.3642 H            1 ML51201   0.0000
    27 H4           5.0922    16.1883   -11.5022 H            1 ML51201   0.0000
    28 H5           2.8028    17.2830   -10.6756 H            1 ML51201   0.0000
    29 H6           1.4246    15.4922   -10.0823 H            1 ML51201   0.0000
    30 H7           1.5332    15.6530   -11.7037 H            1 ML51201   0.0000
    31 H8           3.3982    17.9786    -8.7717 H            1 ML51201   0.0000
    32 H9           4.4071    15.4580    -6.6682 H            1 ML51201   0.0000
    33 H10          5.9337    15.6849    -4.8393 H            1 ML51201   0.0000
    34 H11          7.1738    17.7159    -4.5533 H            1 ML51201   0.0000
    35 H12          5.4845    19.2263    -8.0298 H            1 ML51201   0.0000
    36 H13          6.8673    20.4266    -5.3425 H            1 ML51201   0.0000
    37 H14          7.1508    20.4642    -6.9502 H            1 ML51201   0.0000
    38 H15          9.1293    19.2684    -6.6989 H            1 ML51201   0.0000
    39 H16          8.8006    18.9607    -5.1292 H            1 ML51201   0.0000
    40 H17          9.3205    21.0675    -4.4823 H            1 ML51201   0.0000
    41 H18          9.0866    21.6780    -5.9787 H            1 ML51201   0.0000
    42 H19         11.0766    20.4215    -6.6657 H            1 ML51201   0.0000
    43 H20         11.3562    20.1593    -5.0783 H            1 ML51201   0.0000
    44 H21         11.5470    22.4802    -4.7055 H            1 ML51201   0.0000
    45 H22         11.1982    22.7763    -6.2731 H            1 ML51201   0.0000
    46 H23         13.5287    22.9484    -5.9086 H            1 ML51201   0.0000
    47 H24         13.5594    21.4124    -5.3549 H            1 ML51201   0.0000
    48 H25         13.2106    21.7085    -6.9225 H            1 ML51201   0.0000
    49 H26          2.3785    14.4824   -10.9409 H            1 ML51201   0.0000
@<TRIPOS>BOND
     1    1    2      ar
     2    2    3      ar
     3    2    4      ar
     4    2    5       1
     5    5    6       1
     6    6    7       1
     7    7    8       1
     8    7    9       1
     9    9   10       2
    10    9   11      am
    11   11   12       1
    12   12   13      ar
    13   12   16      ar
    14   13   14      ar
    15   14   15      ar
    16   15   17      ar
    17   16   17      ar
    18   17   18       1
    19   18   19       1
    20   19   20       1
    21   20   21       1
    22   21   22       1
    23   22   23       1
    24   23   48       1
    25   23   47       1
    26    5   24       1
    27    5   25       1
    28    6   26       1
    29    6   27       1
    30    7   28       1
    31    8   29       1
    32    8   30       1
    33   11   31       1
    34   13   32       1
    35   14   33       1
    36   15   34       1
    37   16   35       1
    38   18   36       1
    39   18   37       1
    40   19   38       1
    41   19   39       1
    42   20   40       1
    43   20   41       1
    44   21   42       1
    45   21   43       1
    46   22   44       1
    47   22   45       1
    48   23   46       1
    49    8   49       1
@<TRIPOS>SUBSTRUCTURE
     1 ML51201     1 GROUP             4 A     ML5     0 **** ML5 A1201
