@<TRIPOS>MOLECULE
2yfl_DC4_2_ligand
   21    23     1     0     0
SMALL
NO_CHARGES


@<TRIPOS>ATOM
     1 CAH        -16.2840   -26.1440     9.2710 C.ar         1 DC41460   0.0000
     2 CAN        -16.1670   -27.2570    10.0970 C.ar         1 DC41460   0.0000
     3 CAM        -15.5230   -28.4640     9.9130 C.ar         1 DC41460   0.0000
     4 CAF        -14.7870   -28.9630     8.8420 C.ar         1 DC41460   0.0000
     5 CAC        -14.2440   -30.2370     8.9290 C.ar         1 DC41460   0.0000
     6 CAB        -14.4390   -30.9910    10.0790 C.ar         1 DC41460   0.0000
     7 CAE        -15.1790   -30.4940    11.1470 C.ar         1 DC41460   0.0000
     8 CAK        -15.7230   -29.2200    11.0660 C.ar         1 DC41460   0.0000
     9 OAI        -16.4750   -28.4880    11.9400 O.2          1 DC41460   0.0000
    10 CAL        -16.7530   -27.2800    11.3620 C.ar         1 DC41460   0.0000
    11 CAG        -17.4700   -26.1750    11.8070 C.ar         1 DC41460   0.0000
    12 CAD        -17.5820   -25.0600    10.9790 C.ar         1 DC41460   0.0000
    13 CAJ        -16.9990   -25.0370     9.7130 C.ar         1 DC41460   0.0000
    14 CL1        -17.1430   -23.6440     8.6940 Cl           1 DC41460   0.0000
    15 HAH        -15.8572   -26.1403     8.3666 H            1 DC41460   0.0000
    16 HAF        -14.6512   -28.4101     8.0199 H            1 DC41460   0.0000
    17 HAC        -13.7147   -30.6105     8.1672 H            1 DC41460   0.0000
    18 HAB        -14.0409   -31.9063    10.1403 H            1 DC41460   0.0000
    19 HAE        -15.3178   -31.0503    11.9663 H            1 DC41460   0.0000
    20 HAG        -17.8999   -26.1804    12.7099 H            1 DC41460   0.0000
    21 HAD        -18.0905   -24.2607    11.2992 H            1 DC41460   0.0000
@<TRIPOS>BOND
     1    1    2      ar
     2    1   13      ar
     3    2    3       1
     4    2   10      ar
     5    3    4      ar
     6    3    8      ar
     7    4    5      ar
     8    5    6      ar
     9    6    7      ar
    10    7    8      ar
    11    8    9       1
    12    9   10       1
    13   10   11      ar
    14   11   12      ar
    15   12   13      ar
    16   13   14       1
    17    1   15       1
    18    4   16       1
    19    5   17       1
    20    6   18       1
    21    7   19       1
    22   11   20       1
    23   12   21       1
@<TRIPOS>SUBSTRUCTURE
     1 DC41460     1 GROUP             4 C     DC4     0 **** DC4 C1460
