@<TRIPOS>MOLECULE
4jr7_GNP_1_ligand
   45    47     1     0     0
SMALL
NO_CHARGES


@<TRIPOS>ATOM
     1 PG          22.4100    -1.6130     2.1850 P.3          1 GNP401   0.0000
     2 O1G         21.5160    -1.7850     3.3580 O.co2        1 GNP401   0.0000
     3 O2G         23.5170    -0.4790     2.4780 O.co2        1 GNP401  -1.0000
     4 O3G         21.5520    -1.1920     0.8890 O.co2        1 GNP401  -1.0000
     5 N3B         23.2050    -3.1420     1.8810 N.3          1 GNP401   0.0000
     6 PB          24.9270    -3.3000     1.6140 P.3          1 GNP401   0.0000
     7 O1B         25.1450    -3.2230     0.1530 O.co2        1 GNP401   0.0000
     8 O2B         25.8430    -2.1990     2.3410 O.co2        1 GNP401  -1.0000
     9 O3A         25.3140    -4.8100     2.0720 O.3          1 GNP401   0.0000
    10 PA          25.0040    -5.5430     3.4940 P.3          1 GNP401   0.0000
    11 O1A         26.2980    -5.5670     4.2760 O.co2        1 GNP401   0.0000
    12 O2A         23.7710    -4.9270     4.1670 O.co2        1 GNP401  -1.0000
    13 O5'         24.6360    -7.0460     3.0600 O.3          1 GNP401   0.0000
    14 C5'         23.5260    -7.2060     2.1570 C.3          1 GNP401   0.0000
    15 C4'         22.6390    -8.4120     2.4510 C.3          1 GNP401   0.0000
    16 O4'         23.4070    -9.6350     2.3730 O.3          1 GNP401   0.0000
    17 C3'         21.9830    -8.4460     3.8220 C.3          1 GNP401   0.0000
    18 O3'         20.7560    -7.7050     3.9050 O.3          1 GNP401   0.0000
    19 C2'         21.7560    -9.9320     4.0300 C.3          1 GNP401   0.0000
    20 O2'         20.5050   -10.3800     3.5240 O.3          1 GNP401   0.0000
    21 C1'         22.8900   -10.6150     3.2490 C.3          1 GNP401   0.0000
    22 N9          23.8930   -10.9850     4.2680 N.pl3        1 GNP401   0.0000
    23 C8          24.8320   -10.1780     4.7880 C.2          1 GNP401   0.0000
    24 N7          25.5450   -10.8150     5.7270 N.2          1 GNP401   0.0000
    25 C5          25.0330   -12.0550     5.8220 C.2          1 GNP401   0.0000
    26 C6          25.2970   -13.2510     6.6360 C.2          1 GNP401   0.0000
    27 O6          26.2110   -13.2470     7.5020 O.2          1 GNP401   0.0000
    28 N1          24.5450   -14.3400     6.4100 N.pl3        1 GNP401   0.0000
    29 C2          23.5430   -14.3960     5.5080 C.2          1 GNP401   0.0000
    30 N2          22.8590   -15.5540     5.3880 N.pl3        1 GNP401   0.0000
    31 N3          23.2410   -13.3190     4.7410 N.2          1 GNP401   0.0000
    32 C4          23.9320   -12.1680     4.8630 C.2          1 GNP401   0.0000
    33 H3B         22.7664    -3.5206     1.0659 H            1 GNP401   0.0000
    34 H5'1        23.8890    -7.3039     1.2304 H            1 GNP401   0.0000
    35 H5'2        22.9607    -6.3827     2.2083 H            1 GNP401   0.0000
    36 H4'         21.9193    -8.4486     1.7577 H            1 GNP401   0.0000
    37 H3'         22.6258    -8.1066     4.5088 H            1 GNP401   0.0000
    38 H6          20.6392    -7.3567     4.8351 H            1 GNP401   0.0000
    39 H2'         21.8297   -10.1549     5.0020 H            1 GNP401   0.0000
    40 H8          19.7645    -9.8924     3.9864 H            1 GNP401   0.0000
    41 H1'         22.5609   -11.4166     2.7499 H            1 GNP401   0.0000
    42 H10         24.9795    -9.2284     4.5114 H            1 GNP401   0.0000
    43 H11         24.7400   -15.1624     6.9444 H            1 GNP401   0.0000
    44 H12         22.1110   -15.6268     4.7283 H            1 GNP401   0.0000
    45 H13         23.1005   -16.3388     5.9588 H            1 GNP401   0.0000
@<TRIPOS>BOND
     1    1    2      ar
     2    1    3      ar
     3    1    4      ar
     4    1    5       1
     5    5    6       1
     6    6    7      ar
     7    6    8      ar
     8    6    9       1
     9    9   10       1
    10   10   11      ar
    11   10   12      ar
    12   10   13       1
    13   13   14       1
    14   14   15       1
    15   15   16       1
    16   15   17       1
    17   16   21       1
    18   17   18       1
    19   17   19       1
    20   19   20       1
    21   19   21       1
    22   21   22       1
    23   22   23       1
    24   22   32       1
    25   23   24       2
    26   24   25       1
    27   25   26       1
    28   25   32       2
    29   26   27       2
    30   26   28       1
    31   28   29       1
    32   29   30       1
    33   29   31       2
    34   31   32       1
    35   30   45       1
    36   30   44       1
    37    5   33       1
    38   28   43       1
    39   23   42       1
    40   14   34       1
    41   14   35       1
    42   15   36       1
    43   17   37       1
    44   18   38       1
    45   19   39       1
    46   20   40       1
    47   21   41       1
@<TRIPOS>SUBSTRUCTURE
     1 GNP401      1 GROUP             4 A     GNP     0 **** GNP A 401
