@<TRIPOS>MOLECULE
3lgx_ATP_3_ligand
   43    45     1     0     0
SMALL
NO_CHARGES


@<TRIPOS>ATOM
     1 PG          85.1420   109.2850     0.9260 P.3          1 ATP600   0.0000
     2 O1G         84.1190   108.5330     0.0980 O.co2        1 ATP600   0.0000
     3 O2G         84.6710   109.6860     2.3140 O.co2        1 ATP600  -1.0000
     4 O3G         86.5100   108.6280     1.0030 O.co2        1 ATP600  -1.0000
     5 PB          86.0190   111.9560     0.8270 P.3          1 ATP600   0.0000
     6 O1B         86.5010   112.9250    -0.2370 O.co2        1 ATP600   0.0000
     7 O2B         86.9320   111.5140     1.9680 O.co2        1 ATP600  -1.0000
     8 O3B         85.3570   110.6770     0.1150 O.3          1 ATP600   0.0000
     9 PA          83.3650   113.0560     1.2710 P.3          1 ATP600   0.0000
    10 O1A         82.8620   113.9210     2.3870 O.co2        1 ATP600   0.0000
    11 O2A         82.5950   111.8150     0.8770 O.co2        1 ATP600  -1.0000
    12 O3A         84.8620   112.6680     1.7030 O.3          1 ATP600   0.0000
    13 O5'         83.6190   114.0290     0.0120 O.3          1 ATP600   0.0000
    14 C5'         83.0480   115.3300    -0.1000 C.3          1 ATP600   0.0000
    15 C4'         83.7840   116.0640    -1.2120 C.3          1 ATP600   0.0000
    16 O4'         83.4110   115.5230    -2.4900 O.3          1 ATP600   0.0000
    17 C3'         83.4720   117.5480    -1.3060 C.3          1 ATP600   0.0000
    18 O3'         84.3410   118.3570    -0.5210 O.3          1 ATP600   0.0000
    19 C2'         83.6860   117.8520    -2.7700 C.3          1 ATP600   0.0000
    20 O2'         85.0730   117.9460    -3.0580 O.3          1 ATP600   0.0000
    21 C1'         83.2710   116.5720    -3.4380 C.3          1 ATP600   0.0000
    22 N9          81.8690   116.6790    -3.8970 N.pl3        1 ATP600   0.0000
    23 C8          80.7890   116.1910    -3.2780 C.2          1 ATP600   0.0000
    24 N7          79.6700   116.4340    -4.0030 N.2          1 ATP600   0.0000
    25 C5          80.0270   117.1060    -5.1040 C.ar         1 ATP600   0.0000
    26 C6          79.3520   117.6490    -6.2820 C.ar         1 ATP600   0.0000
    27 N6          78.0170   117.5820    -6.4040 N.pl3        1 ATP600   0.0000
    28 N1          80.1080   118.2620    -7.2180 N.ar         1 ATP600   0.0000
    29 C2          81.4340   118.4110    -7.1020 C.ar         1 ATP600   0.0000
    30 N3          82.1090   117.9040    -6.0570 N.ar         1 ATP600   0.0000
    31 C4          81.4770   117.2590    -5.0410 C.ar         1 ATP600   0.0000
    32 H5'1        83.1544   115.8241     0.7629 H            1 ATP600   0.0000
    33 H5'2        82.0763   115.2573    -0.3248 H            1 ATP600   0.0000
    34 H4'         84.7687   115.9460    -1.0836 H            1 ATP600   0.0000
    35 H3'         82.5195   117.7177    -1.0533 H            1 ATP600   0.0000
    36 H5          84.4417   119.2536    -0.9522 H            1 ATP600   0.0000
    37 H2'         83.1656   118.6454    -3.0857 H            1 ATP600   0.0000
    38 H7          85.3752   118.8916    -2.9373 H            1 ATP600   0.0000
    39 H1'         83.8666   116.3958    -4.2217 H            1 ATP600   0.0000
    40 H9          80.8047   115.7122    -2.4002 H            1 ATP600   0.0000
    41 H10         77.5696   117.9578    -7.2155 H            1 ATP600   0.0000
    42 H11         77.4698   117.1563    -5.6833 H            1 ATP600   0.0000
    43 H12         81.9331   118.9112    -7.8096 H            1 ATP600   0.0000
@<TRIPOS>BOND
     1    1    2      ar
     2    1    3      ar
     3    1    4      ar
     4    1    8       1
     5    5    6      ar
     6    5    7      ar
     7    5    8       1
     8    5   12       1
     9    9   10      ar
    10    9   11      ar
    11    9   12       1
    12    9   13       1
    13   13   14       1
    14   14   15       1
    15   15   16       1
    16   15   17       1
    17   16   21       1
    18   17   18       1
    19   17   19       1
    20   19   20       1
    21   19   21       1
    22   21   22       1
    23   22   23       1
    24   22   31       1
    25   23   24       2
    26   24   25       1
    27   25   26      ar
    28   25   31      ar
    29   26   27       1
    30   26   28      ar
    31   28   29      ar
    32   29   30      ar
    33   30   31      ar
    34   29   43       1
    35   27   42       1
    36   27   41       1
    37   23   40       1
    38   14   32       1
    39   14   33       1
    40   15   34       1
    41   17   35       1
    42   18   36       1
    43   19   37       1
    44   20   38       1
    45   21   39       1
@<TRIPOS>SUBSTRUCTURE
     1 ATP600      1 GROUP             4 C     ATP     0 **** ATP C 600
