@<TRIPOS>MOLECULE
1ga8_UPF_1_ligand
   57    59     1     0     0
SMALL
NO_CHARGES


@<TRIPOS>ATOM
     1 N1          27.2460    44.4760    57.8590 N.pl3        1 UPF501   0.0000
     2 C2          27.6320    43.8440    56.6640 C.2          1 UPF501   0.0000
     3 N3          26.7360    44.0950    55.6100 N.pl3        1 UPF501   0.0000
     4 C4          25.5430    44.9050    55.6530 C.2          1 UPF501   0.0000
     5 C5          25.2330    45.5200    56.9100 C.2          1 UPF501   0.0000
     6 C6          26.0520    45.3090    57.9420 C.2          1 UPF501   0.0000
     7 O2          28.6330    43.1380    56.5650 O.2          1 UPF501   0.0000
     8 O4          24.8680    45.0220    54.6450 O.2          1 UPF501   0.0000
     9 C1D         27.9460    44.4270    59.2220 C.3          1 UPF501   0.0000
    10 C2D         29.2130    45.2450    59.1230 C.3          1 UPF501   0.0000
    11 O2'         30.3250    44.4900    59.5910 O.3          1 UPF501   0.0000
    12 C3D         28.9280    46.4700    59.9740 C.3          1 UPF501   0.0000
    13 C4D         28.1770    45.8250    61.1350 C.3          1 UPF501   0.0000
    14 O4D         27.3570    44.7760    60.4510 O.3          1 UPF501   0.0000
    15 O3D         30.0090    47.2470    60.4500 O.3          1 UPF501   0.0000
    16 C5D         26.8690    46.2250    61.7450 C.3          1 UPF501   0.0000
    17 O5D         26.2980    47.5780    61.4830 O.3          1 UPF501   0.0000
    18 PA          26.7660    49.0990    61.2490 P.3          1 UPF501   0.0000
    19 O1A         28.2220    49.2720    61.2610 O.co2        1 UPF501   0.0000
    20 O2A         26.1060    49.6940    60.0590 O.co2        1 UPF501  -1.0000
    21 O3A         26.0110    49.2790    62.6430 O.3          1 UPF501   0.0000
    22 PB          25.7370    50.5070    63.6150 P.3          1 UPF501   0.0000
    23 O1B         27.0730    51.1400    63.7230 O.co2        1 UPF501   0.0000
    24 O2B         24.7520    51.3970    62.9590 O.co2        1 UPF501  -1.0000
    25 O3B         25.2830    49.9760    64.9890 O.3          1 UPF501   0.0000
    26 C1'         25.6630    49.7820    66.5260 C.3          1 UPF501   0.0000
    27 C2'         27.1420    49.3490    66.4990 C.3          1 UPF501   0.0000
    28 C3'         27.5700    48.1620    65.5000 C.3          1 UPF501   0.0000
    29 C4'         26.5800    46.9420    65.6870 C.3          1 UPF501   0.0000
    30 C5'         25.0910    47.5580    65.6700 C.3          1 UPF501   0.0000
    31 C6'         24.0670    46.5000    66.1240 C.3          1 UPF501   0.0000
    32 F2'         28.0070    50.4450    66.3030 F            1 UPF501   0.0000
    33 O3'         28.8620    47.7560    65.8700 O.3          1 UPF501   0.0000
    34 O4'         26.8780    46.2870    66.9490 O.3          1 UPF501   0.0000
    35 O5'         24.8230    48.6270    66.7070 O.3          1 UPF501   0.0000
    36 O6'         23.7800    45.2490    65.5530 O.3          1 UPF501   0.0000
    37 H1          26.9494    43.6642    54.7331 H            1 UPF501   0.0000
    38 H2          24.4208    46.0945    57.0113 H            1 UPF501   0.0000
    39 H3          25.8362    45.7439    58.8162 H            1 UPF501   0.0000
    40 H1D         28.2487    43.4802    59.3316 H            1 UPF501   0.0000
    41 H2D         29.3655    45.5199    58.1737 H            1 UPF501   0.0000
    42 H2'         30.9954    44.3930    58.8553 H            1 UPF501   0.0000
    43 H3D         28.2984    47.0668    59.4766 H            1 UPF501   0.0000
    44 H4D         28.8000    45.4311    61.8108 H            1 UPF501   0.0000
    45 H9          29.6575    48.0117    60.9900 H            1 UPF501   0.0000
    46 H5D1        26.9782    46.1463    62.7359 H            1 UPF501   0.0000
    47 H5D2        26.1905    45.5611    61.4306 H            1 UPF501   0.0000
    48 H1'         25.4554    50.5595    67.1197 H            1 UPF501   0.0000
    49 H13         27.3402    49.0110    67.4190 H            1 UPF501   0.0000
    50 H3'         27.5600    48.4802    64.5520 H            1 UPF501   0.0000
    51 H4'         26.6900    46.2949    64.9326 H            1 UPF501   0.0000
    52 H5'         24.8632    47.8940    64.7561 H            1 UPF501   0.0000
    53 H6'1        23.1913    46.9828    66.1195 H            1 UPF501   0.0000
    54 H6'2        24.3270    46.2900    67.0665 H            1 UPF501   0.0000
    55 H19         29.4857    47.8857    65.0992 H            1 UPF501   0.0000
    56 H20         26.6568    45.3142    66.8801 H            1 UPF501   0.0000
    57 H6'         23.9550    44.5283    66.2238 H            1 UPF501   0.0000
@<TRIPOS>BOND
     1    1    2       1
     2    1    6       1
     3    1    9       1
     4    2    3       1
     5    2    7       2
     6    3    4       1
     7    4    5       1
     8    4    8       2
     9    5    6       2
    10    9   10       1
    11    9   14       1
    12   10   11       1
    13   10   12       1
    14   12   13       1
    15   12   15       1
    16   13   14       1
    17   13   16       1
    18   16   17       1
    19   17   18       1
    20   18   19      ar
    21   18   20      ar
    22   18   21       1
    23   21   22       1
    24   22   23      ar
    25   22   24      ar
    26   22   25       1
    27   25   26       1
    28   26   27       1
    29   26   35       1
    30   27   28       1
    31   27   32       1
    32   28   29       1
    33   28   33       1
    34   29   30       1
    35   29   34       1
    36   30   31       1
    37   30   35       1
    38   31   36       1
    39    3   37       1
    40    5   38       1
    41    6   39       1
    42    9   40       1
    43   10   41       1
    44   11   42       1
    45   12   43       1
    46   13   44       1
    47   15   45       1
    48   16   46       1
    49   16   47       1
    50   36   57       1
    51   34   56       1
    52   26   48       1
    53   27   49       1
    54   28   50       1
    55   29   51       1
    56   30   52       1
    57   31   53       1
    58   31   54       1
    59   33   55       1
@<TRIPOS>SUBSTRUCTURE
     1 UPF501      1 GROUP             4 A     UPF     0 **** UPF A 501
