@<TRIPOS>MOLECULE
4hcy_0YN_2_ligand
   36    37     1     0     0
SMALL
NO_CHARGES


@<TRIPOS>ATOM
     1 C2A         44.0820    35.3210     8.8190 C.3          1 0YN401   0.0000
     2 C35         46.4790    30.1340     8.3580 C.3          1 0YN401   0.0000
     3 C2          48.2230    30.9600    10.0700 C.2          1 0YN401   0.0000
     4 S1          49.5690    30.3280    10.9660 S.3          1 0YN401   0.0000
     5 C5          49.4540    28.7310    10.3350 C.2          1 0YN401   0.0000
     6 C4          48.3080    28.6900     9.3860 C.2          1 0YN401   0.0000
     7 C4A         47.8880    27.4580     8.6280 C.3          1 0YN401   0.0000
     8 C5A         50.4540    27.7110    10.8240 C.3          1 0YN401   0.0000
     9 C5B         51.8610    28.2920    10.7480 C.3          1 0YN401   0.0000
    10 O5G         52.8140    27.2500    10.9870 O.3          1 0YN401   0.0000
    11 N1'         45.9050    33.8280     8.0710 N.ar         1 0YN401   0.0000
    12 C2'         44.7140    33.9600     8.6970 C.ar         1 0YN401   0.0000
    13 N3'         44.0860    32.8820     9.2140 N.ar         1 0YN401   1.0000
    14 C4'         44.6380    31.6560     9.1130 C.ar         1 0YN401   0.0000
    15 N4'         44.0040    30.5780     9.6350 N.pl3        1 0YN401   0.0000
    16 C5'         45.8580    31.5070     8.4830 C.ar         1 0YN401   0.0000
    17 C6'         46.4830    32.6290     7.9500 C.ar         1 0YN401   0.0000
    18 C3          47.6690    29.9430     9.2730 C.2          1 0YN401   0.0000
    19 H2A1        43.2116    35.2420     9.3050 H            1 0YN401   0.0000
    20 H2A2        44.6933    35.9281     9.3266 H            1 0YN401   0.0000
    21 H2A3        43.9212    35.6969     7.9064 H            1 0YN401   0.0000
    22 H4          46.7786    30.0037     7.4129 H            1 0YN401   0.0000
    23 H5          45.7874    29.4486     8.5860 H            1 0YN401   0.0000
    24 H6          47.8925    31.9028    10.1141 H            1 0YN401   0.0000
    25 H4A1        47.0971    27.6727     8.0549 H            1 0YN401   0.0000
    26 H4A2        48.6435    27.1480     8.0508 H            1 0YN401   0.0000
    27 H4A3        47.6446    26.7354     9.2750 H            1 0YN401   0.0000
    28 H5A1        50.4010    26.8928    10.2515 H            1 0YN401   0.0000
    29 H5A2        50.2453    27.4689    11.7715 H            1 0YN401   0.0000
    30 H5B1        51.9658    29.0063    11.4400 H            1 0YN401   0.0000
    31 H5B2        52.0130    28.6826     9.8401 H            1 0YN401   0.0000
    32 H5G         53.7391    27.6267    10.9381 H            1 0YN401   0.0000
    33 H4'1        44.4160    29.6700     9.5584 H            1 0YN401   0.0000
    34 H4'2        43.1241    30.6905    10.0967 H            1 0YN401   0.0000
    35 H6'         47.3604    32.5393     7.4786 H            1 0YN401   0.0000
    36 H3'         43.2056    32.9938     9.6749 H            1 0YN401   0.0000
@<TRIPOS>BOND
     1    1   12       1
     2    2   16       1
     3    2   18       1
     4    3    4       1
     5    3   18       2
     6    4    5       1
     7    5    6       2
     8    5    8       1
     9    6    7       1
    10    6   18       1
    11    8    9       1
    12    9   10       1
    13   11   12      ar
    14   11   17      ar
    15   12   13      ar
    16   13   14      ar
    17   14   15       1
    18   14   16      ar
    19   16   17      ar
    20    1   19       1
    21    1   20       1
    22    1   21       1
    23    2   22       1
    24    2   23       1
    25    3   24       1
    26    7   25       1
    27    7   26       1
    28    7   27       1
    29    8   28       1
    30    8   29       1
    31    9   30       1
    32    9   31       1
    33   10   32       1
    34   15   33       1
    35   15   34       1
    36   17   35       1
    37   13   36       1
@<TRIPOS>SUBSTRUCTURE
     1 0YN401      1 GROUP             4 B     0YN     0 **** 0YN B 401
