@<TRIPOS>MOLECULE
3s0d_CTV_1_ligand
   31    30     1     0     0
SMALL
NO_CHARGES


@<TRIPOS>ATOM
     1 C1           8.4290    10.5450    29.6370 C.2          1 CTV120   0.0000
     2 N1           8.3110    15.0570    33.2940 N.4          1 CTV120   1.0000
     3 C2           8.0320    12.4880    28.4760 C.3          1 CTV120   0.0000
     4 C3           8.4860    11.8660    29.5840 C.2          1 CTV120   0.0000
     5 C4           8.6150    12.6790    30.8830 C.3          1 CTV120   0.0000
     6 C5           9.8330    12.7030    31.6070 C.3          1 CTV120   0.0000
     7 C6          10.0100    11.4250    32.3590 C.3          1 CTV120   0.0000
     8 C7           9.9170    11.5230    33.9240 C.2          1 CTV120   0.0000
     9 C8           9.4170    12.6810    34.6790 C.2          1 CTV120   0.0000
    10 C9          10.2830    10.2120    34.8180 C.3          1 CTV120   0.0000
    11 C10          8.9130    13.8440    34.0050 C.3          1 CTV120   0.0000
    12 H1           8.7597    10.0624    30.4480 H            1 CTV120   0.0000
    13 H2           8.0553    10.0293    28.8660 H            1 CTV120   0.0000
    14 H3           8.0928    15.7636    33.9672 H            1 CTV120   0.0000
    15 H4           8.9701    15.4176    32.6340 H            1 CTV120   0.0000
    16 H5           8.1390    13.4767    28.5812 H            1 CTV120   0.0000
    17 H6           8.5554    12.1787    27.6820 H            1 CTV120   0.0000
    18 H7           7.0652    12.2696    28.3436 H            1 CTV120   0.0000
    19 H8           7.9182    12.3286    31.5089 H            1 CTV120   0.0000
    20 H9           8.4047    13.6278    30.6475 H            1 CTV120   0.0000
    21 H10          9.8190    13.4669    32.2522 H            1 CTV120   0.0000
    22 H11         10.5944    12.8193    30.9692 H            1 CTV120   0.0000
    23 H12         10.9114    11.0581    32.1293 H            1 CTV120   0.0000
    24 H13          9.3027    10.7889    32.0505 H            1 CTV120   0.0000
    25 H14          9.4281    12.6582    35.6787 H            1 CTV120   0.0000
    26 H15         10.1771    10.4300    35.7882 H            1 CTV120   0.0000
    27 H16          9.6683     9.4613    34.5760 H            1 CTV120   0.0000
    28 H17         11.2284     9.9396    34.6388 H            1 CTV120   0.0000
    29 H18          9.3708    14.4407    34.6641 H            1 CTV120   0.0000
    30 H19          9.5215    13.6748    33.2297 H            1 CTV120   0.0000
    31 H20          7.4765    14.7829    32.8159 H            1 CTV120   0.0000
@<TRIPOS>BOND
     1    1    4       2
     2    2   11       1
     3    3    4       1
     4    4    5       1
     5    5    6       1
     6    6    7       1
     7    7    8       1
     8    8    9       2
     9    8   10       1
    10    9   11       1
    11    1   12       1
    12    1   13       1
    13    2   14       1
    14    2   15       1
    15    3   16       1
    16    3   17       1
    17    3   18       1
    18    5   19       1
    19    5   20       1
    20    6   21       1
    21    6   22       1
    22    7   23       1
    23    7   24       1
    24    9   25       1
    25   10   26       1
    26   10   27       1
    27   10   28       1
    28   11   29       1
    29   11   30       1
    30    2   31       1
@<TRIPOS>SUBSTRUCTURE
     1 CTV120      1 GROUP             4 A     CTV     0 **** CTV A 120
