@<TRIPOS>MOLECULE
4k33_ACP_1_ligand
   45    47     1     0     0
SMALL
NO_CHARGES


@<TRIPOS>ATOM
     1 PG          26.1880     7.1620    30.0550 P.3          1 ACP801   0.0000
     2 O1G         25.6960     6.1020    29.0960 O.co2        1 ACP801   0.0000
     3 O2G         25.0150     8.1340    30.4340 O.co2        1 ACP801  -1.0000
     4 O3G         27.3450     7.9630    29.3550 O.co2        1 ACP801  -1.0000
     5 PB          25.5600     5.8970    32.7570 P.3          1 ACP801   0.0000
     6 O1B         24.6370     7.0580    32.9590 O.co2        1 ACP801   0.0000
     7 O2B         24.7260     4.6380    32.3180 O.co2        1 ACP801  -1.0000
     8 C3B         26.8680     6.3240    31.5390 C.3          1 ACP801   0.0000
     9 PA          25.9140     4.5170    35.1190 P.3          1 ACP801   0.0000
    10 O1A         25.5930     5.2250    36.4180 O.co2        1 ACP801   0.0000
    11 O2A         24.6700     3.7850    34.5890 O.co2        1 ACP801  -1.0000
    12 O3A         26.3910     5.5930    34.0690 O.3          1 ACP801   0.0000
    13 O5'         27.1400     3.4850    35.3900 O.3          1 ACP801   0.0000
    14 C5'         27.8130     2.8960    34.2940 C.3          1 ACP801   0.0000
    15 C4'         28.6290     1.7620    34.7750 C.3          1 ACP801   0.0000
    16 O4'         29.6060     2.2250    35.7830 O.3          1 ACP801   0.0000
    17 C3'         27.8180     0.7850    35.4820 C.3          1 ACP801   0.0000
    18 O3'         27.1780    -0.1330    34.6020 O.3          1 ACP801   0.0000
    19 C2'         28.7260     0.1250    36.3700 C.3          1 ACP801   0.0000
    20 O2'         29.4760    -0.8940    35.6570 O.3          1 ACP801   0.0000
    21 C1'         29.6060     1.1790    36.8450 C.3          1 ACP801   0.0000
    22 N9          29.1210     1.7280    38.0300 N.pl3        1 ACP801   0.0000
    23 C8          28.2300     2.7290    38.1560 C.2          1 ACP801   0.0000
    24 N7          28.0090     2.9870    39.4500 N.2          1 ACP801   0.0000
    25 C5          28.7490     2.1720    40.2060 C.ar         1 ACP801   0.0000
    26 C6          28.9190     1.9880    41.5850 C.ar         1 ACP801   0.0000
    27 N6          28.1930     2.7980    42.5460 N.pl3        1 ACP801   0.0000
    28 N1          29.7580     1.0480    42.0480 N.ar         1 ACP801   0.0000
    29 C2          30.4550     0.2590    41.1920 C.ar         1 ACP801   0.0000
    30 N3          30.3120     0.4050    39.8370 N.ar         1 ACP801   0.0000
    31 C4          29.4720     1.3410    39.3190 C.ar         1 ACP801   0.0000
    32 H3B1        27.5297     6.9323    31.9773 H            1 ACP801   0.0000
    33 H3B2        27.3272     5.4834    31.2519 H            1 ACP801   0.0000
    34 H5'1        28.4064     3.5752    33.8621 H            1 ACP801   0.0000
    35 H5'2        27.1433     2.5671    33.6282 H            1 ACP801   0.0000
    36 H4'         29.1028     1.3279    34.0088 H            1 ACP801   0.0000
    37 H3'         27.1231     1.2629    36.0193 H            1 ACP801   0.0000
    38 H7          27.4218     0.0858    33.6572 H            1 ACP801   0.0000
    39 H2'         28.2281    -0.2826    37.1355 H            1 ACP801   0.0000
    40 H9          30.3132    -0.4928    35.2853 H            1 ACP801   0.0000
    41 H1'         30.5307     0.8233    36.9809 H            1 ACP801   0.0000
    42 H11         27.7965     3.2096    37.3937 H            1 ACP801   0.0000
    43 H12         28.3276     2.6519    43.5261 H            1 ACP801   0.0000
    44 H13         27.5582     3.5022    42.2280 H            1 ACP801   0.0000
    45 H14         31.0782    -0.4348    41.5529 H            1 ACP801   0.0000
@<TRIPOS>BOND
     1    1    2      ar
     2    1    3      ar
     3    1    4      ar
     4    1    8       1
     5    5    6      ar
     6    5    7      ar
     7    5    8       1
     8    5   12       1
     9    9   10      ar
    10    9   11      ar
    11    9   12       1
    12    9   13       1
    13   13   14       1
    14   14   15       1
    15   15   16       1
    16   15   17       1
    17   16   21       1
    18   17   18       1
    19   17   19       1
    20   19   20       1
    21   19   21       1
    22   21   22       1
    23   22   23       1
    24   22   31       1
    25   23   24       2
    26   24   25       1
    27   25   26      ar
    28   25   31      ar
    29   26   27       1
    30   26   28      ar
    31   28   29      ar
    32   29   30      ar
    33   30   31      ar
    34   29   45       1
    35   27   44       1
    36   27   43       1
    37    8   32       1
    38    8   33       1
    39   23   42       1
    40   14   34       1
    41   14   35       1
    42   15   36       1
    43   17   37       1
    44   18   38       1
    45   19   39       1
    46   20   40       1
    47   21   41       1
@<TRIPOS>SUBSTRUCTURE
     1 ACP801      1 GROUP             4 A     ACP     0 **** ACP A 801
