@<TRIPOS>MOLECULE
3pjc_PJC_1_ligand
   49    53     1     0     0
SMALL
NO_CHARGES


@<TRIPOS>ATOM
     1 C5           6.9060    -4.9890     8.4100 C.ar         1 PJC800   0.0000
     2 C6           7.8390    -4.3930     9.2970 C.ar         1 PJC800   0.0000
     3 C8           6.3930    -4.9250    11.1290 C.ar         1 PJC800   0.0000
     4 C10          5.7720    -5.6080     8.9690 C.ar         1 PJC800   0.0000
     5 N12          6.2410    -4.9710    12.4880 N.pl3        1 PJC800   0.0000
     6 C13          7.1870    -4.2920    13.3850 C.3          1 PJC800   0.0000
     7 C20          6.1520    -7.1230    13.5760 C.3          1 PJC800   0.0000
     8 C28         10.3840    -3.9280     9.3560 C.2          1 PJC800   0.0000
     9 F1           6.3820    -4.2730     6.1850 F            1 PJC800   0.0000
    10 C2           7.0970    -5.1730     6.9060 C.3          1 PJC800   0.0000
    11 F3           8.4040    -5.1100     6.5590 F            1 PJC800   0.0000
    12 F4           6.7030    -6.4360     6.6030 F            1 PJC800   0.0000
    13 N7           7.5200    -4.3750    10.6040 N.ar         1 PJC800   0.0000
    14 N9           5.5640    -5.6010    10.2960 N.ar         1 PJC800   0.0000
    15 C16          8.1780    -5.4090    13.8430 C.3          1 PJC800   0.0000
    16 C19          7.4190    -6.6550    14.2810 C.2          1 PJC800   0.0000
    17 C23          5.2930    -5.8960    13.1330 C.3          1 PJC800   0.0000
    18 O26          7.8330    -7.2830    15.2290 O.2          1 PJC800   0.0000
    19 C27          9.1260    -3.6660     8.9310 C.2          1 PJC800   0.0000
    20 C29         11.2240    -2.8940     8.7150 C.2          1 PJC800   0.0000
    21 N30         10.4940    -2.1540     7.8620 N.am         1 PJC800   0.0000
    22 C32          9.2240    -2.5860     7.9510 C.2          1 PJC800   0.0000
    23 O33          8.2700    -2.1470     7.3370 O.2          1 PJC800   0.0000
    24 O34         12.4200    -2.7620     8.9020 O.2          1 PJC800   0.0000
    25 C35         10.8720    -4.8370    10.4280 C.2          1 PJC800   0.0000
    26 C36         11.9670    -4.6160    11.1910 C.2          1 PJC800   0.0000
    27 N38         12.1360    -5.5780    12.0590 N.pl3        1 PJC800   0.0000
    28 C40         11.2000    -6.5310    11.9160 C.ar         1 PJC800   0.0000
    29 C41         10.3360    -6.1800    10.8690 C.ar         1 PJC800   0.0000
    30 C42          9.2930    -7.0330    10.4880 C.ar         1 PJC800   0.0000
    31 C44          9.1190    -8.2100    11.2460 C.ar         1 PJC800   0.0000
    32 C46          9.9780    -8.5420    12.3290 C.ar         1 PJC800   0.0000
    33 C48         11.0580    -7.7080    12.6720 C.ar         1 PJC800   0.0000
    34 H1           5.1115    -6.0597     8.3693 H            1 PJC800   0.0000
    35 H2           6.7082    -3.9022    14.1716 H            1 PJC800   0.0000
    36 H3           7.6745    -3.5668    12.8987 H            1 PJC800   0.0000
    37 H4           5.6173    -7.6914    14.2014 H            1 PJC800   0.0000
    38 H5           6.4020    -7.6590    12.7696 H            1 PJC800   0.0000
    39 H6           8.7231    -5.0701    14.6098 H            1 PJC800   0.0000
    40 H7           8.7828    -5.6435    13.0820 H            1 PJC800   0.0000
    41 H8           4.5849    -6.1793    12.4862 H            1 PJC800   0.0000
    42 H9           4.8656    -5.4627    13.9265 H            1 PJC800   0.0000
    43 H10         10.8321    -1.4204     7.2724 H            1 PJC800   0.0000
    44 H11         12.5677    -3.8214    11.1024 H            1 PJC800   0.0000
    45 H12         12.8670    -5.6017    12.7410 H            1 PJC800   0.0000
    46 H13          8.6983    -6.8176     9.7135 H            1 PJC800   0.0000
    47 H14          8.3688    -8.8294    11.0145 H            1 PJC800   0.0000
    48 H15          9.8128    -9.3776    12.8529 H            1 PJC800   0.0000
    49 H16         11.6894    -7.9394    13.4121 H            1 PJC800   0.0000
@<TRIPOS>BOND
     1    1    2      ar
     2    1    4      ar
     3    1   10       1
     4    2   13      ar
     5    2   19       1
     6    3    5       1
     7    3   13      ar
     8    3   14      ar
     9    4   14      ar
    10    5    6       1
    11    5   17       1
    12    6   15       1
    13    7   16       1
    14    7   17       1
    15    8   19       2
    16    8   20       1
    17    8   25       1
    18    9   10       1
    19   10   11       1
    20   10   12       1
    21   15   16       1
    22   16   18       2
    23   19   22       1
    24   20   21      am
    25   20   24       2
    26   21   22      am
    27   22   23       2
    28   25   26       2
    29   25   29       1
    30   26   27       1
    31   27   28       1
    32   28   29      ar
    33   28   33      ar
    34   29   30      ar
    35   30   31      ar
    36   31   32      ar
    37   32   33      ar
    38    4   34       1
    39    6   35       1
    40    6   36       1
    41    7   37       1
    42    7   38       1
    43   15   39       1
    44   15   40       1
    45   17   41       1
    46   17   42       1
    47   21   43       1
    48   26   44       1
    49   27   45       1
    50   30   46       1
    51   31   47       1
    52   32   48       1
    53   33   49       1
@<TRIPOS>SUBSTRUCTURE
     1 PJC800      1 GROUP             4 A     PJC     0 **** PJC A 800
