@<TRIPOS>MOLECULE
3cq5_144_1_ligand
   20    19     1     0     0
SMALL
NO_CHARGES


@<TRIPOS>ATOM
     1 C1          29.4890    -3.4670    10.0530 C.3          1 144400   0.0000
     2 N           30.7230    -3.8310    10.7750 N.4          1 144400   1.0000
     3 C2          31.3670    -2.8290    11.6670 C.3          1 144400   0.0000
     4 O2          30.6870    -1.5680    11.6420 O.3          1 144400   0.0000
     5 C3          29.7610    -4.2430    11.8520 C.3          1 144400   0.0000
     6 O3          29.1690    -5.5300    11.5790 O.3          1 144400   0.0000
     7 C4          31.2450    -5.1950    10.8330 C.3          1 144400   0.0000
     8 O4          30.4980    -6.1020     9.9860 O.3          1 144400   0.0000
     9 H1          29.1847    -4.2431     9.5007 H            1 144400   0.0000
    10 H2          28.7760    -3.2267    10.7117 H            1 144400   0.0000
    11 H3          29.6699    -2.6845     9.4572 H            1 144400   0.0000
    12 H4          32.3115    -2.6918    11.3686 H            1 144400   0.0000
    13 H5          31.3609    -3.1800    12.6034 H            1 144400   0.0000
    14 H6          30.6929    -1.2045    10.7104 H            1 144400   0.0000
    15 H7          29.0340    -3.5593    11.9153 H            1 144400   0.0000
    16 H8          30.2508    -4.2903    12.7226 H            1 144400   0.0000
    17 H9          28.3297    -5.4053    11.0498 H            1 144400   0.0000
    18 H10         31.1935    -5.5199    11.7774 H            1 144400   0.0000
    19 H11         32.1994    -5.1877    10.5346 H            1 144400   0.0000
    20 H12         30.1039    -6.8316    10.5449 H            1 144400   0.0000
@<TRIPOS>BOND
     1    1    2       1
     2    2    3       1
     3    2    5       1
     4    2    7       1
     5    3    4       1
     6    5    6       1
     7    7    8       1
     8    1    9       1
     9    1   10       1
    10    1   11       1
    11    3   12       1
    12    3   13       1
    13    4   14       1
    14    5   15       1
    15    5   16       1
    16    6   17       1
    17    7   18       1
    18    7   19       1
    19    8   20       1
@<TRIPOS>SUBSTRUCTURE
     1 144400      1 GROUP             4 A     144     0 **** 144 A 400
