@<TRIPOS>MOLECULE
3n10_CMP_2_ligand
   34    37     1     0     0
SMALL
NO_CHARGES


@<TRIPOS>ATOM
     1 P           13.1930    -2.1460    41.0820 P.3          1 CMP181   0.0000
     2 O1P         12.4230    -3.4150    41.3790 O.3          1 CMP181   0.0000
     3 O2P         14.6220    -2.2490    41.6060 O.2          1 CMP181   0.0000
     4 O5'         13.1460    -1.9230    39.4820 O.3          1 CMP181   0.0000
     5 C5'         11.9460    -1.4550    38.8650 C.3          1 CMP181   0.0000
     6 C4'         11.5760    -0.1530    39.5550 C.3          1 CMP181   0.0000
     7 O4'         10.4040     0.4820    39.0610 O.3          1 CMP181   0.0000
     8 C3'         11.2490    -0.3930    41.0170 C.3          1 CMP181   0.0000
     9 O3'         12.4530    -0.8070    41.6830 O.3          1 CMP181   0.0000
    10 C2'         10.5630     0.9090    41.4070 C.3          1 CMP181   0.0000
    11 O2'         11.4870     1.8890    41.8900 O.3          1 CMP181   0.0000
    12 C1'          9.9820     1.4090    40.0740 C.3          1 CMP181   0.0000
    13 N9           8.4960     1.5840    40.0280 N.pl3        1 CMP181   0.0000
    14 C8           7.8600     2.5130    39.2800 C.2          1 CMP181   0.0000
    15 N7           6.5080     2.4490    39.4200 N.2          1 CMP181   0.0000
    16 C5           6.2560     1.4440    40.2790 C.ar         1 CMP181   0.0000
    17 C6           5.0420     0.8300    40.8700 C.ar         1 CMP181   0.0000
    18 N6           3.7990     1.2810    40.5640 N.pl3        1 CMP181   0.0000
    19 N1           5.2270    -0.2040    41.7230 N.ar         1 CMP181   0.0000
    20 C2           6.4490    -0.6780    42.0440 C.ar         1 CMP181   0.0000
    21 N3           7.5910    -0.1610    41.5500 N.ar         1 CMP181   0.0000
    22 C4           7.5620     0.8750    40.6780 C.ar         1 CMP181   0.0000
    23 H1P         13.0527    -4.1918    41.3916 H            1 CMP181   0.0000
    24 H5'1        11.2143    -2.1265    38.9820 H            1 CMP181   0.0000
    25 H5'2        12.0998    -1.2961    37.8898 H            1 CMP181   0.0000
    26 H4'         12.3454     0.4825    39.4909 H            1 CMP181   0.0000
    27 H3'         10.5811    -1.1349    41.0762 H            1 CMP181   0.0000
    28 H2'          9.8363     0.7440    42.0739 H            1 CMP181   0.0000
    29 H7          11.1446     2.8039    41.6762 H            1 CMP181   0.0000
    30 H1'         10.4003     2.2944    39.8713 H            1 CMP181   0.0000
    31 H9           8.3291     3.1715    38.6915 H            1 CMP181   0.0000
    32 H10          2.9956     0.8506    40.9754 H            1 CMP181   0.0000
    33 H11          3.6866     2.0437    39.9271 H            1 CMP181   0.0000
    34 H12          6.5098    -1.4489    42.6781 H            1 CMP181   0.0000
@<TRIPOS>BOND
     1    1    2       1
     2    1    3       2
     3    1    4       1
     4    1    9       1
     5    4    5       1
     6    5    6       1
     7    6    7       1
     8    6    8       1
     9    7   12       1
    10    8    9       1
    11    8   10       1
    12   10   11       1
    13   10   12       1
    14   12   13       1
    15   13   14       1
    16   13   22       1
    17   14   15       2
    18   15   16       1
    19   16   17      ar
    20   16   22      ar
    21   17   18       1
    22   17   19      ar
    23   19   20      ar
    24   20   21      ar
    25   21   22      ar
    26    2   23       1
    27    5   24       1
    28    5   25       1
    29    6   26       1
    30    8   27       1
    31   10   28       1
    32   11   29       1
    33   12   30       1
    34   14   31       1
    35   18   32       1
    36   18   33       1
    37   20   34       1
@<TRIPOS>SUBSTRUCTURE
     1 CMP181      1 GROUP             4 B     CMP     0 **** CMP B 181
