@<TRIPOS>MOLECULE
3zv6_4HB_1_ligand
   24    25     1     0     0
SMALL
NO_CHARGES


@<TRIPOS>ATOM
     1 CA1         19.7930    -1.4530    40.2790 C.ar         1 4HB1277   0.0000
     2 CA2         20.7370    -0.4080    40.2710 C.ar         1 4HB1277   0.0000
     3 CA3         20.3660     0.9100    40.0150 C.ar         1 4HB1277   0.0000
     4 CA4         19.0410     1.2100    39.7610 C.ar         1 4HB1277   0.0000
     5 OA4         18.6520     2.4760    39.5050 O.3          1 4HB1277   0.0000
     6 CA5         18.0970     0.2020    39.7600 C.ar         1 4HB1277   0.0000
     7 CA6         18.4690    -1.1140    40.0120 C.ar         1 4HB1277   0.0000
     8 CB1         20.1520    -2.7890    40.5400 C.ar         1 4HB1277   0.0000
     9 CB2         21.4870    -3.1320    40.8160 C.ar         1 4HB1277   0.0000
    10 CB3         21.8670    -4.4480    41.0740 C.ar         1 4HB1277   0.0000
    11 CB4         20.9240    -5.4670    41.0740 C.ar         1 4HB1277   0.0000
    12 CB5         19.5920    -5.1510    40.8030 C.ar         1 4HB1277   0.0000
    13 CB6         19.2070    -3.8300    40.5400 C.ar         1 4HB1277   0.0000
    14 OAM         21.3140    -6.7530    41.3250 O.3          1 4HB1277   0.0000
    15 HA2         21.6976    -0.6174    40.4537 H            1 4HB1277   0.0000
    16 HA3         21.0546     1.6352    40.0150 H            1 4HB1277   0.0000
    17 HA4         19.3264     3.2144    39.4970 H            1 4HB1277   0.0000
    18 HA5         17.1385     0.4202    39.5766 H            1 4HB1277   0.0000
    19 HA6         17.7720    -1.8310    40.0013 H            1 4HB1277   0.0000
    20 HB2         22.1821    -2.4132    40.8275 H            1 4HB1277   0.0000
    21 HB3         22.8263    -4.6599    41.2606 H            1 4HB1277   0.0000
    22 HB5         18.9038    -5.8765    40.7965 H            1 4HB1277   0.0000
    23 HB6         18.2470    -3.6246    40.3497 H            1 4HB1277   0.0000
    24 HAM         20.6376    -7.4895    41.3258 H            1 4HB1277   0.0000
@<TRIPOS>BOND
     1    1    2      ar
     2    1    7      ar
     3    1    8       1
     4    2    3      ar
     5    3    4      ar
     6    4    5       1
     7    4    6      ar
     8    6    7      ar
     9    8    9      ar
    10    8   13      ar
    11    9   10      ar
    12   10   11      ar
    13   11   12      ar
    14   11   14       1
    15   12   13      ar
    16    2   15       1
    17    3   16       1
    18    5   17       1
    19    6   18       1
    20    7   19       1
    21    9   20       1
    22   10   21       1
    23   12   22       1
    24   13   23       1
    25   14   24       1
@<TRIPOS>SUBSTRUCTURE
     1 4HB1277     1 GROUP             4 A     4HB     0 **** 4HB A1277
