@<TRIPOS>MOLECULE
4rww_2BA_1_ligand
   68    74     1     0     0
SMALL
NO_CHARGES


@<TRIPOS>ATOM
     1 P           59.7810    74.0240   -87.8770 P.3          1 2BA2001   0.0000
     2 O1P         59.2200    73.4190   -86.6290 O.3          1 2BA2001   0.0000
     3 O2P         60.9150    75.0240   -87.8200 O.2          1 2BA2001   0.0000
     4 O5'         58.6440    74.7680   -88.7320 O.3          1 2BA2001   0.0000
     5 C5'         57.3730    74.1040   -88.9500 C.3          1 2BA2001   0.0000
     6 C4'         56.4560    75.0190   -89.7280 C.3          1 2BA2001   0.0000
     7 O4'         56.1990    76.2010   -88.9960 O.3          1 2BA2001   0.0000
     8 C3'         57.0340    75.5140   -91.0460 C.3          1 2BA2001   0.0000
     9 O3'         56.8820    74.4940   -92.0320 O.3          1 2BA2001   0.0000
    10 C2'         56.3110    76.8140   -91.3340 C.3          1 2BA2001   0.0000
    11 O2'         55.2740    76.6680   -92.2980 O.3          1 2BA2001   0.0000
    12 C1'         55.6910    77.0620   -89.9740 C.3          1 2BA2001   0.0000
    13 N9          55.7950    78.4100   -89.5790 N.pl3        1 2BA2001   0.0000
    14 C8          54.7220    79.2080   -89.2090 C.2          1 2BA2001   0.0000
    15 N7          55.1510    80.3930   -88.7350 N.2          1 2BA2001   0.0000
    16 C5          56.5100    80.2740   -88.7870 C.ar         1 2BA2001   0.0000
    17 C6          57.5690    81.1860   -88.4280 C.ar         1 2BA2001   0.0000
    18 N6          57.2750    82.4130   -87.9730 N.pl3        1 2BA2001   0.0000
    19 N1          58.8240    80.7590   -88.6150 N.ar         1 2BA2001   0.0000
    20 C2          59.1000    79.5320   -89.0250 C.ar         1 2BA2001   0.0000
    21 N3          58.2090    78.6310   -89.4410 N.ar         1 2BA2001   0.0000
    22 C4          56.8980    78.9730   -89.2690 C.ar         1 2BA2001   0.0000
    23 P1          57.9910    74.2830   -93.1730 P.3          1 2BA2001   0.0000
    24 O1P1        58.4360    75.5820   -93.7190 O.2          1 2BA2001   0.0000
    25 O2P1        57.4580    73.2410   -94.1480 O.3          1 2BA2001   0.0000
    26 O5'1        59.2580    73.6410   -92.3970 O.3          1 2BA2001   0.0000
    27 C5'1        59.2440    72.3340   -91.8230 C.3          1 2BA2001   0.0000
    28 C4'1        60.5710    72.1280   -91.1510 C.3          1 2BA2001   0.0000
    29 O4'1        61.6340    72.1950   -92.1210 O.3          1 2BA2001   0.0000
    30 C3'1        60.9120    73.1610   -90.0990 C.3          1 2BA2001   0.0000
    31 O3'1        60.2730    72.8290   -88.8700 O.3          1 2BA2001   0.0000
    32 C2'1        62.4370    73.0600   -90.0160 C.3          1 2BA2001   0.0000
    33 O2'1        62.8360    71.9040   -89.2700 O.3          1 2BA2001   0.0000
    34 C1'1        62.7730    72.8040   -91.4730 C.3          1 2BA2001   0.0000
    35 N91         63.0300    74.0500   -92.1930 N.pl3        1 2BA2001   0.0000
    36 C81         62.1360    74.9580   -92.7600 C.2          1 2BA2001   0.0000
    37 N71         62.7960    75.9420   -93.4120 N.2          1 2BA2001   0.0000
    38 C51         64.1320    75.8120   -93.0470 C.ar         1 2BA2001   0.0000
    39 C61         65.3320    76.5150   -93.4440 C.ar         1 2BA2001   0.0000
    40 N61         65.2470    77.6500   -94.1910 N.pl3        1 2BA2001   0.0000
    41 N11         66.5080    75.9990   -93.0570 N.ar         1 2BA2001   0.0000
    42 C21         66.5470    74.8780   -92.3200 C.ar         1 2BA2001   0.0000
    43 N31         65.4690    74.1310   -91.9760 N.ar         1 2BA2001   0.0000
    44 C41         64.2630    74.5630   -92.3650 C.ar         1 2BA2001   0.0000
    45 H1P         58.2530    73.2052   -86.7677 H            1 2BA2001   0.0000
    46 H5'1        56.9556    73.8845   -88.0682 H            1 2BA2001   0.0000
    47 H5'2        57.5212    73.2613   -89.4676 H            1 2BA2001   0.0000
    48 H4'         55.5923    74.5468   -89.9042 H            1 2BA2001   0.0000
    49 H3'         58.0080    75.7042   -90.9227 H            1 2BA2001   0.0000
    50 H2'         56.9486    77.5419   -91.5863 H            1 2BA2001   0.0000
    51 H7          54.5984    76.0109   -91.9638 H            1 2BA2001   0.0000
    52 H1'         54.7154    76.8597   -90.0593 H            1 2BA2001   0.0000
    53 H9          53.7616    78.9398   -89.2841 H            1 2BA2001   0.0000
    54 H10         58.0103    83.0437   -87.7247 H            1 2BA2001   0.0000
    55 H11         56.3205    82.6971   -87.8821 H            1 2BA2001   0.0000
    56 H12         60.0611    79.2557   -89.0228 H            1 2BA2001   0.0000
    57 H13         59.1121    71.6475   -92.5381 H            1 2BA2001   0.0000
    58 H14         58.5058    72.2626   -91.1522 H            1 2BA2001   0.0000
    59 H15         60.5794    71.2224   -90.7269 H            1 2BA2001   0.0000
    60 H16         60.6371    74.0736   -90.4017 H            1 2BA2001   0.0000
    61 H17         62.8560    73.8996   -89.6704 H            1 2BA2001   0.0000
    62 H18         63.7177    71.5763   -89.6093 H            1 2BA2001   0.0000
    63 H19         63.5675    72.2004   -91.5397 H            1 2BA2001   0.0000
    64 H20         61.1405    74.8905   -92.6934 H            1 2BA2001   0.0000
    65 H21         66.0793    78.1329   -94.4633 H            1 2BA2001   0.0000
    66 H22         64.3523    78.0008   -94.4674 H            1 2BA2001   0.0000
    67 H23         67.4423    74.5691   -91.9991 H            1 2BA2001   0.0000
    68 H24         57.3911    73.6426   -95.0614 H            1 2BA2001   0.0000
@<TRIPOS>BOND
     1    1    2       1
     2    1    3       2
     3    1    4       1
     4    1   31       1
     5    4    5       1
     6    5    6       1
     7    6    7       1
     8    6    8       1
     9    7   12       1
    10    8    9       1
    11    8   10       1
    12    9   23       1
    13   10   11       1
    14   10   12       1
    15   12   13       1
    16   13   14       1
    17   13   22       1
    18   14   15       2
    19   15   16       1
    20   16   17      ar
    21   16   22      ar
    22   17   18       1
    23   17   19      ar
    24   19   20      ar
    25   20   21      ar
    26   21   22      ar
    27   23   24       2
    28   23   25       1
    29   23   26       1
    30   26   27       1
    31   27   28       1
    32   28   29       1
    33   28   30       1
    34   29   34       1
    35   30   31       1
    36   30   32       1
    37   32   33       1
    38   32   34       1
    39   34   35       1
    40   35   36       1
    41   35   44       1
    42   36   37       2
    43   37   38       1
    44   38   39      ar
    45   38   44      ar
    46   39   40       1
    47   39   41      ar
    48   41   42      ar
    49   42   43      ar
    50   43   44      ar
    51    2   45       1
    52    5   46       1
    53    5   47       1
    54    6   48       1
    55    8   49       1
    56   10   50       1
    57   11   51       1
    58   12   52       1
    59   14   53       1
    60   18   54       1
    61   18   55       1
    62   20   56       1
    63   42   67       1
    64   27   57       1
    65   27   58       1
    66   28   59       1
    67   30   60       1
    68   32   61       1
    69   33   62       1
    70   34   63       1
    71   36   64       1
    72   40   65       1
    73   40   66       1
    74   25   68       1
@<TRIPOS>SUBSTRUCTURE
     1 2BA2001     1 GROUP             4 A     2BA     0 **** 2BA A2001
