@<TRIPOS>MOLECULE
./coach420/1goy/ligand.pdb
 24 26 0 0 0
SMALL
GASTEIGER

@<TRIPOS>ATOM
      1  P         13.2840   44.3090   10.5360 P.3   110  3GP110      0.5330
      2  O1P       13.4460   42.9340   11.0550 O.3   110  3GP110     -0.1145
      3  O2P       14.2270   44.7710    9.4550 O.2   110  3GP110     -0.2224
      4  O3P       11.8830   44.5010   10.0830 O.3   110  3GP110     -0.1145
      5  O5'       12.1560   49.6250   11.4270 O.3   110  3GP110     -0.2176
      6  C5'       12.7210   48.6150   10.5900 C.3   110  3GP110      0.2145
      7  C4'       13.4620   47.5250   11.3510 C.3   110  3GP110      0.1853
      8  O4'       14.8090   47.7500   11.8230 O.3   110  3GP110     -0.3267
      9  C3'       13.0250   46.5340   12.1040 C.3   110  3GP110      0.2171
     10  O3'       13.5120   45.2190   11.7880 O.3   110  3GP110     -0.2624
     11  C2'       13.3560   46.8400   13.3600 C.2   110  3GP110      0.2299
     12  O2'       13.2390   46.0740   14.3010 O.2   110  3GP110     -0.2887
     13  C1'       14.4530   47.6040   13.2350 C.3   110  3GP110      0.2695
     14  N9        15.0510   48.5090   14.0400 N.ar  110  3GP110     -0.2653
     15  C8        14.7740   49.8210   13.9010 C.ar  110  3GP110      0.1819
     16  N7        15.5960   50.4920   14.7490 N.ar  110  3GP110     -0.2173
     17  C5        16.3940   49.5840   15.3410 C.ar  110  3GP110      0.1748
     18  C6        17.4880   49.6590   16.3360 C.ar  110  3GP110      0.3023
     19  O6        17.8390   50.7600   16.7870 O.2   110  3GP110     -0.2633
     20  N1        18.0700   48.5100   16.7100 N.ar  110  3GP110     -0.1709
     21  C2        17.7120   47.2870   16.2030 C.ar  110  3GP110      0.2606
     22  N2        18.3770   46.1950   16.6370 N.pl3 110  3GP110     -0.0859
     23  N3        16.7110   47.1320   15.2980 N.ar  110  3GP110     -0.1918
     24  C4        16.0600   48.2280   14.8470 C.ar  110  3GP110      0.1726
@<TRIPOS>BOND
     1     1     3    2
     2     1     4    1
     3     1     2    1
     4     1    10    1
     5     5     6    1
     6     6     7    1
     7     7     8    1
     8     7     9    1
     9     8    13    1
    10     9    10    1
    11     9    11    1
    12    11    13    1
    13    11    12    2
    14    13    14    1
    15    14    15   ar
    16    14    24   ar
    17    15    16   ar
    18    16    17   ar
    19    17    24   ar
    20    17    18   ar
    21    18    20   ar
    22    18    19    2
    23    20    21   ar
    24    21    23   ar
    25    21    22    1
    26    23    24   ar
