@<TRIPOS>MOLECULE
4bms_NAP_4_ligand
   73    77     1     0     0
SMALL
NO_CHARGES


@<TRIPOS>ATOM
     1 PA           4.9120    65.4540    24.3660 P.3          1 NAP1250   0.0000
     2 O1A          4.7010    66.2620    25.6270 O.co2        1 NAP1250   0.0000
     3 O2A          6.1810    65.6590    23.5560 O.co2        1 NAP1250  -1.0000
     4 O5B          4.8900    63.9070    24.7660 O.3          1 NAP1250   0.0000
     5 C5B          6.1180    63.2140    24.8260 C.3          1 NAP1250   0.0000
     6 C4B          5.9780    62.1700    25.8990 C.3          1 NAP1250   0.0000
     7 O4B          7.0640    61.2560    25.7490 O.3          1 NAP1250   0.0000
     8 C3B          6.0920    62.7870    27.2750 C.3          1 NAP1250   0.0000
     9 O3B          5.3280    62.0240    28.2120 O.3          1 NAP1250   0.0000
    10 C2B          7.5580    62.6180    27.5800 C.3          1 NAP1250   0.0000
    11 O2B          7.7660    62.6600    28.9940 O.3          1 NAP1250   0.0000
    12 C1B          7.8140    61.2550    26.9460 C.3          1 NAP1250   0.0000
    13 N9A          9.2200    60.9200    26.6460 N.pl3        1 NAP1250   0.0000
    14 C8A         10.0610    61.5290    25.8010 C.2          1 NAP1250   0.0000
    15 N7A         11.2740    60.9050    25.8010 N.2          1 NAP1250   0.0000
    16 C5A         11.1880    59.8940    26.6640 C.ar         1 NAP1250   0.0000
    17 C6A         12.0790    58.8520    27.1590 C.ar         1 NAP1250   0.0000
    18 N6A         13.3410    58.7900    26.6920 N.pl3        1 NAP1250   0.0000
    19 N1A         11.6010    57.9690    28.0620 N.ar         1 NAP1250   0.0000
    20 C2A         10.3390    58.0180    28.5420 C.ar         1 NAP1250   0.0000
    21 N3A          9.4790    58.9510    28.1360 N.ar         1 NAP1250   0.0000
    22 C4A          9.8410    59.8920    27.2150 C.ar         1 NAP1250   0.0000
    23 O3           3.5210    65.6070    23.5610 O.3          1 NAP1250   0.0000
    24 PN           3.0940    64.7000    22.3130 P.3          1 NAP1250   0.0000
    25 O1N          4.2020    64.7830    21.3360 O.co2        1 NAP1250   0.0000
    26 O2N          1.7460    65.1030    21.8640 O.co2        1 NAP1250  -1.0000
    27 O5D          3.0400    63.1900    22.7500 O.3          1 NAP1250   0.0000
    28 C5D          4.1140    62.3610    22.2890 C.3          1 NAP1250   0.0000
    29 C4D          3.8520    61.4970    21.0370 C.3          1 NAP1250   0.0000
    30 O4D          3.0180    62.0570    20.0020 O.3          1 NAP1250   0.0000
    31 C3D          5.1910    61.2170    20.3820 C.3          1 NAP1250   0.0000
    32 O3D          5.2350    59.8460    20.0200 O.3          1 NAP1250   0.0000
    33 C2D          5.1600    62.1180    19.1760 C.3          1 NAP1250   0.0000
    34 O2D          6.0690    61.7090    18.1860 O.3          1 NAP1250   0.0000
    35 C1D          3.7270    61.9490    18.7580 C.3          1 NAP1250   0.0000
    36 N1N          3.3150    62.9420    17.7830 N.ar         1 NAP1250   1.0000
    37 C2N          2.7750    64.1130    18.1620 C.ar         1 NAP1250   0.0000
    38 C3N          2.3570    65.0620    17.2180 C.ar         1 NAP1250   0.0000
    39 C7N          1.7520    66.3750    17.6060 C.2          1 NAP1250   0.0000
    40 O7N          1.2940    67.0620    16.7090 O.2          1 NAP1250   0.0000
    41 N7N          1.6920    66.7710    18.8890 N.am         1 NAP1250   0.0000
    42 C4N          2.4940    64.7770    15.8700 C.ar         1 NAP1250   0.0000
    43 C5N          3.0380    63.5600    15.4990 C.ar         1 NAP1250   0.0000
    44 C6N          3.4350    62.6520    16.4870 C.ar         1 NAP1250   0.0000
    45 P2B          9.1870    63.0250    29.6560 P.3          1 NAP1250   0.0000
    46 O1X         10.0680    61.7910    29.5540 O.co2        1 NAP1250   0.0000
    47 O2X          9.6270    64.2580    28.9010 O.co2        1 NAP1250  -1.0000
    48 O3X          8.7410    63.2850    31.0670 O.co2        1 NAP1250  -1.0000
    49 H5B1         6.8586    63.8457    25.0553 H            1 NAP1250   0.0000
    50 H5B2         6.3110    62.7794    23.9463 H            1 NAP1250   0.0000
    51 H4B          5.1055    61.6906    25.8049 H            1 NAP1250   0.0000
    52 H3B          5.8222    63.7499    27.2732 H            1 NAP1250   0.0000
    53 H5           5.4065    62.4358    29.1199 H            1 NAP1250   0.0000
    54 H2B          8.0969    63.3259    27.1233 H            1 NAP1250   0.0000
    55 H1B          7.4432    60.5503    27.5509 H            1 NAP1250   0.0000
    56 H8A          9.8320    62.3295    25.2472 H            1 NAP1250   0.0000
    57 H6A1        13.9624    58.0801    27.0234 H            1 NAP1250   0.0000
    58 H6A2        13.6564    59.4539    26.0140 H            1 NAP1250   0.0000
    59 H2A         10.0445    57.3402    29.2157 H            1 NAP1250   0.0000
    60 H5D1         4.3580    61.7422    23.0357 H            1 NAP1250   0.0000
    61 H5D2         4.8891    62.9590    22.0849 H            1 NAP1250   0.0000
    62 H4D          3.4539    60.6275    21.3293 H            1 NAP1250   0.0000
    63 H3D          5.9478    61.4544    20.9910 H            1 NAP1250   0.0000
    64 H16          5.6133    59.3133    20.7771 H            1 NAP1250   0.0000
    65 H2D          5.3368    63.0654    19.4429 H            1 NAP1250   0.0000
    66 H18          6.9512    62.1542    18.3391 H            1 NAP1250   0.0000
    67 H1D          3.5961    61.0335    18.3777 H            1 NAP1250   0.0000
    68 H2N          2.6692    64.3114    19.1364 H            1 NAP1250   0.0000
    69 H7N1         1.2825    67.6532    19.1213 H            1 NAP1250   0.0000
    70 H7N2         2.0569    66.1834    19.6112 H            1 NAP1250   0.0000
    71 H4N          2.2052    65.4382    15.1776 H            1 NAP1250   0.0000
    72 H5N          3.1467    63.3310    14.5317 H            1 NAP1250   0.0000
    73 H6N          3.8162    61.7682    16.2158 H            1 NAP1250   0.0000
@<TRIPOS>BOND
     1    1    2      ar
     2    1    3      ar
     3    1    4       1
     4    1   23       1
     5    4    5       1
     6    5    6       1
     7    6    7       1
     8    6    8       1
     9    7   12       1
    10    8    9       1
    11    8   10       1
    12   10   11       1
    13   10   12       1
    14   11   45       1
    15   12   13       1
    16   13   14       1
    17   13   22       1
    18   14   15       2
    19   15   16       1
    20   16   17      ar
    21   16   22      ar
    22   17   18       1
    23   17   19      ar
    24   19   20      ar
    25   20   21      ar
    26   21   22      ar
    27   23   24       1
    28   24   25      ar
    29   24   26      ar
    30   24   27       1
    31   27   28       1
    32   28   29       1
    33   29   30       1
    34   29   31       1
    35   30   35       1
    36   31   32       1
    37   31   33       1
    38   33   34       1
    39   33   35       1
    40   35   36       1
    41   36   37      ar
    42   36   44      ar
    43   37   38      ar
    44   38   39       1
    45   38   42      ar
    46   39   40       2
    47   39   41      am
    48   42   43      ar
    49   43   44      ar
    50   45   46      ar
    51   45   47      ar
    52   45   48      ar
    53   43   72       1
    54    5   49       1
    55    5   50       1
    56    6   51       1
    57    8   52       1
    58    9   53       1
    59   10   54       1
    60   12   55       1
    61   14   56       1
    62   18   57       1
    63   18   58       1
    64   20   59       1
    65   44   73       1
    66   28   60       1
    67   28   61       1
    68   29   62       1
    69   31   63       1
    70   32   64       1
    71   33   65       1
    72   34   66       1
    73   35   67       1
    74   37   68       1
    75   41   69       1
    76   41   70       1
    77   42   71       1
@<TRIPOS>SUBSTRUCTURE
     1 NAP1250     1 GROUP             4 E     NAP     0 **** NAP E1250
