@<TRIPOS>MOLECULE
3o14_NIO_1_ligand
   13    13     1     0     0
SMALL
NO_CHARGES


@<TRIPOS>ATOM
     1 N           58.2020    13.9330    16.1620 N.ar         1 NIO300   0.0000
     2 C1          56.9850    13.7920    15.5860 C.ar         1 NIO300   0.0000
     3 C2          55.8580    13.4290    16.3480 C.ar         1 NIO300   0.0000
     4 C3          56.0210    13.2430    17.7230 C.ar         1 NIO300   0.0000
     5 C4          57.2920    13.4000    18.3010 C.ar         1 NIO300   0.0000
     6 C5          58.3760    13.7480    17.4830 C.ar         1 NIO300   0.0000
     7 C6          54.5030    13.2650    15.6870 C.2          1 NIO300   0.0000
     8 O1          53.5550    12.7160    16.2950 O.co2        1 NIO300   0.0000
     9 O2          54.3400    13.7010    14.5200 O.co2        1 NIO300  -1.0000
    10 H1          56.8848    13.9482    14.6034 H            1 NIO300   0.0000
    11 H2          55.2366    12.9992    18.2933 H            1 NIO300   0.0000
    12 H3          57.4217    13.2652    19.2834 H            1 NIO300   0.0000
    13 H4          59.2851    13.8595    17.8844 H            1 NIO300   0.0000
@<TRIPOS>BOND
     1    1    2      ar
     2    1    6      ar
     3    2    3      ar
     4    3    4      ar
     5    3    7       1
     6    4    5      ar
     7    5    6      ar
     8    7    8      ar
     9    7    9      ar
    10    2   10       1
    11    4   11       1
    12    5   12       1
    13    6   13       1
@<TRIPOS>SUBSTRUCTURE
     1 NIO300      1 GROUP             4 A     NIO     0 **** NIO A 300
