@<TRIPOS>MOLECULE
3iaa_TYD_2_ligand
   38    39     1     0     0
SMALL
NO_CHARGES


@<TRIPOS>ATOM
     1 PA          -8.7060    37.5450    31.2000 P.3          1 TYD398   0.0000
     2 O1A         -7.8980    38.1020    30.1480 O.co2        1 TYD398   0.0000
     3 O2A         -8.7900    38.1480    32.4490 O.co2        1 TYD398  -1.0000
     4 O3A         -8.3070    36.0380    31.5210 O.3          1 TYD398   0.0000
     5 PB          -7.7700    34.8070    30.7620 P.3          1 TYD398   0.0000
     6 O1B         -8.3430    33.7790    31.4240 O.co2        1 TYD398   0.0000
     7 O2B         -6.4000    34.8330    31.0510 O.co2        1 TYD398  -1.0000
     8 O3B         -8.1400    34.8230    29.4260 O.co2        1 TYD398  -1.0000
     9 O5'        -10.1580    37.2730    30.7490 O.3          1 TYD398   0.0000
    10 C5'        -10.5270    37.1850    29.4000 C.3          1 TYD398   0.0000
    11 C4'        -11.5310    38.2260    28.9990 C.3          1 TYD398   0.0000
    12 O4'        -12.6780    38.1320    29.8140 O.3          1 TYD398   0.0000
    13 C3'        -11.0090    39.6250    29.1040 C.3          1 TYD398   0.0000
    14 O3'        -11.2670    40.3220    27.9250 O.3          1 TYD398   0.0000
    15 C2'        -11.7710    40.2380    30.2470 C.3          1 TYD398   0.0000
    16 C1'        -12.9940    39.3640    30.3910 C.3          1 TYD398   0.0000
    17 N1         -13.5300    39.1540    31.7130 N.pl3        1 TYD398   0.0000
    18 C2         -14.6310    39.8800    32.1620 C.2          1 TYD398   0.0000
    19 O2         -15.1170    40.7150    31.4740 O.2          1 TYD398   0.0000
    20 N3         -15.1620    39.7270    33.3450 N.pl3        1 TYD398   0.0000
    21 C4         -14.6640    38.8620    34.1590 C.2          1 TYD398   0.0000
    22 O4         -15.1780    38.7530    35.2180 O.2          1 TYD398   0.0000
    23 C5         -13.5320    38.0600    33.7370 C.2          1 TYD398   0.0000
    24 C5M        -12.9240    37.0430    34.6270 C.3          1 TYD398   0.0000
    25 C6         -13.0090    38.2530    32.4990 C.2          1 TYD398   0.0000
    26 H5'1       -10.9219    36.2811    29.2357 H            1 TYD398   0.0000
    27 H5'2        -9.7081    37.2983    28.8373 H            1 TYD398   0.0000
    28 H4'        -11.8007    38.0582    28.0508 H            1 TYD398   0.0000
    29 H3'        -10.0284    39.6191    29.3000 H            1 TYD398   0.0000
    30 H5         -11.3847    41.2934    28.1310 H            1 TYD398   0.0000
    31 H2'1       -12.0316    41.1798    30.0345 H            1 TYD398   0.0000
    32 H2'2       -11.2250    40.2242    31.0847 H            1 TYD398   0.0000
    33 H1'        -13.7192    39.7740    29.8379 H            1 TYD398   0.0000
    34 H9         -15.9507    40.2782    33.6174 H            1 TYD398   0.0000
    35 H5M1       -12.1611    36.6007    34.1555 H            1 TYD398   0.0000
    36 H5M2       -12.5900    37.4853    35.4593 H            1 TYD398   0.0000
    37 H5M3       -13.6106    36.3566    34.8668 H            1 TYD398   0.0000
    38 H13        -12.2291    37.7077    32.1917 H            1 TYD398   0.0000
@<TRIPOS>BOND
     1    1    2      ar
     2    1    3      ar
     3    1    4       1
     4    1    9       1
     5    4    5       1
     6    5    6      ar
     7    5    7      ar
     8    5    8      ar
     9    9   10       1
    10   10   11       1
    11   11   12       1
    12   11   13       1
    13   12   16       1
    14   13   14       1
    15   13   15       1
    16   15   16       1
    17   16   17       1
    18   17   18       1
    19   17   25       1
    20   18   19       2
    21   18   20       1
    22   20   21       1
    23   21   22       2
    24   21   23       1
    25   23   24       1
    26   23   25       2
    27   25   38       1
    28   24   37       1
    29   24   36       1
    30   10   26       1
    31   10   27       1
    32   11   28       1
    33   13   29       1
    34   14   30       1
    35   15   31       1
    36   15   32       1
    37   16   33       1
    38   20   34       1
    39   24   35       1
@<TRIPOS>SUBSTRUCTURE
     1 TYD398      1 GROUP             4 B     TYD     0 **** TYD B 398
