@<TRIPOS>MOLECULE
2hzn_KIN_1_ligand
   41    43     1     0     0
SMALL
NO_CHARGES


@<TRIPOS>ATOM
     1 C11         47.5410    30.8440    43.6370 C.ar         1 KIN600   0.0000
     2 C13         47.7180    31.0870    42.2710 C.ar         1 KIN600   0.0000
     3 C21         48.0740    23.6850    43.3000 C.ar         1 KIN600   0.0000
     4 C22         49.2950    23.6190    42.5980 C.ar         1 KIN600   0.0000
     5 C24         49.8230    22.3920    42.1510 C.ar         1 KIN600   0.0000
     6 C27         47.9230    21.2530    43.1130 C.ar         1 KIN600   0.0000
     7 C32         49.4060    19.5470    40.7520 C.ar         1 KIN600   0.0000
     8 C33         48.3030    19.9870    40.0070 C.ar         1 KIN600   0.0000
     9 C35         48.1360    19.5210    38.7130 C.ar         1 KIN600   0.0000
    10 F01         47.9040    31.5700    39.5280 F            1 KIN600   0.0000
    11 C02         47.9650    30.2390    39.8940 C.3          1 KIN600   0.0000
    12 F03         49.2240    29.7680    39.6020 F            1 KIN600   0.0000
    13 F04         47.0530    29.5380    39.1390 F            1 KIN600   0.0000
    14 C05         47.7360    30.0130    41.3680 C.ar         1 KIN600   0.0000
    15 C06         47.5650    28.6970    41.8480 C.ar         1 KIN600   0.0000
    16 C08         47.3800    28.4350    43.2180 C.ar         1 KIN600   0.0000
    17 C09         47.3910    29.5280    44.1070 C.ar         1 KIN600   0.0000
    18 N15         47.2070    27.1220    43.7380 N.am         1 KIN600   0.0000
    19 C17         47.7310    26.0460    43.1030 C.2          1 KIN600   0.0000
    20 O18         48.3390    26.1070    41.9950 O.2          1 KIN600   0.0000
    21 N19         47.5430    24.9000    43.7870 N.am         1 KIN600   0.0000
    22 C26         49.1480    21.1950    42.4230 C.ar         1 KIN600   0.0000
    23 C29         47.3940    22.4850    43.5540 C.ar         1 KIN600   0.0000
    24 O31         49.6280    19.9910    42.0130 O.3          1 KIN600   0.0000
    25 N37         48.9790    18.6650    38.1290 N.ar         1 KIN600   0.0000
    26 C38         50.0280    18.2370    38.8410 C.ar         1 KIN600   0.0000
    27 C40         50.2880    18.6480    40.1430 C.ar         1 KIN600   0.0000
    28 H1          47.5211    31.6088    44.2810 H            1 KIN600   0.0000
    29 H2          47.8314    32.0234    41.9388 H            1 KIN600   0.0000
    30 H3          49.7980    24.4632    42.4131 H            1 KIN600   0.0000
    31 H4          50.6815    22.3754    41.6384 H            1 KIN600   0.0000
    32 H5          47.4194    20.4082    43.2937 H            1 KIN600   0.0000
    33 H6          47.6461    20.6281    40.4039 H            1 KIN600   0.0000
    34 H7          47.3457    19.8411    38.1906 H            1 KIN600   0.0000
    35 H8          47.5755    27.9347    41.2009 H            1 KIN600   0.0000
    36 H9          47.2904    29.3647    45.0884 H            1 KIN600   0.0000
    37 H10         46.6911    26.9914    44.5846 H            1 KIN600   0.0000
    38 H11         47.0255    24.9099    44.6427 H            1 KIN600   0.0000
    39 H12         46.5269    22.5024    44.0518 H            1 KIN600   0.0000
    40 H13         50.6575    17.5878    38.4142 H            1 KIN600   0.0000
    41 H14         51.0896    18.3078    40.6347 H            1 KIN600   0.0000
@<TRIPOS>BOND
     1    1    2      ar
     2    1   17      ar
     3    2   14      ar
     4    3    4      ar
     5    3   21       1
     6    3   23      ar
     7    4    5      ar
     8    5   22      ar
     9    6   22      ar
    10    6   23      ar
    11    7    8      ar
    12    7   24       1
    13    7   27      ar
    14    8    9      ar
    15    9   25      ar
    16   10   11       1
    17   11   12       1
    18   11   13       1
    19   11   14       1
    20   14   15      ar
    21   15   16      ar
    22   16   17      ar
    23   16   18       1
    24   18   19      am
    25   19   20       2
    26   19   21      am
    27   22   24       1
    28   25   26      ar
    29   26   27      ar
    30    1   28       1
    31    2   29       1
    32    4   30       1
    33    5   31       1
    34    6   32       1
    35    8   33       1
    36    9   34       1
    37   15   35       1
    38   17   36       1
    39   18   37       1
    40   21   38       1
    41   23   39       1
    42   26   40       1
    43   27   41       1
@<TRIPOS>SUBSTRUCTURE
     1 KIN600      1 GROUP             4 A     KIN     0 **** KIN A 600
