@<TRIPOS>MOLECULE
4xj3_GTP_1_ligand
   45    47     1     0     0
SMALL
NO_CHARGES


@<TRIPOS>ATOM
     1 PG          40.2900    31.5940    54.8820 P.3          1 GTP1012   0.0000
     2 O1G         39.2260    32.3340    54.1120 O.co2        1 GTP1012   0.0000
     3 O2G         39.9190    31.4500    56.3460 O.co2        1 GTP1012  -1.0000
     4 O3G         41.6450    32.2750    54.7900 O.co2        1 GTP1012  -1.0000
     5 O3B         40.4930    30.1730    54.1480 O.3          1 GTP1012   0.0000
     6 PB          40.7380    28.6690    54.6930 P.3          1 GTP1012   0.0000
     7 O1B         41.5470    27.9490    53.6590 O.co2        1 GTP1012   0.0000
     8 O2B         41.3070    28.6080    56.0990 O.co2        1 GTP1012  -1.0000
     9 O3A         39.2660    28.0490    54.6420 O.3          1 GTP1012   0.0000
    10 PA          38.2680    27.6900    55.8600 P.3          1 GTP1012   0.0000
    11 O1A         36.9090    27.8080    55.2410 O.co2        1 GTP1012   0.0000
    12 O2A         38.4190    28.5790    57.0750 O.co2        1 GTP1012  -1.0000
    13 O5'         38.6320    26.1500    56.1880 O.3          1 GTP1012   0.0000
    14 C5'         39.6910    25.8070    57.0510 C.3          1 GTP1012   0.0000
    15 C4'         39.8230    24.2950    57.0030 C.3          1 GTP1012   0.0000
    16 O4'         38.5460    23.7360    57.3080 O.3          1 GTP1012   0.0000
    17 C3'         40.1660    23.7220    55.6420 C.3          1 GTP1012   0.0000
    18 O3'         41.5480    23.6970    55.3620 O.3          1 GTP1012   0.0000
    19 C2'         39.6120    22.3220    55.7760 C.3          1 GTP1012   0.0000
    20 O2'         40.5200    21.5220    56.5140 O.3          1 GTP1012   0.0000
    21 C1'         38.3480    22.5400    56.5900 C.3          1 GTP1012   0.0000
    22 N9          37.1940    22.6930    55.6790 N.pl3        1 GTP1012   0.0000
    23 C8          36.4560    23.8160    55.4030 C.2          1 GTP1012   0.0000
    24 N7          35.4900    23.4850    54.5060 N.2          1 GTP1012   1.0000
    25 C5          35.5910    22.1630    54.2160 C.2          1 GTP1012   0.0000
    26 C6          34.8770    21.2890    53.3870 C.2          1 GTP1012   0.0000
    27 O6          33.9230    21.6780    52.7180 O.2          1 GTP1012   0.0000
    28 N1          35.2490    19.9630    53.3060 N.pl3        1 GTP1012   0.0000
    29 C2          36.3080    19.5000    54.0510 C.2          1 GTP1012   0.0000
    30 N2          36.6680    18.2230    53.9800 N.pl3        1 GTP1012   0.0000
    31 N3          37.0120    20.3670    54.8670 N.2          1 GTP1012   0.0000
    32 C4          36.6550    21.6640    54.9500 C.2          1 GTP1012   0.0000
    33 H5'1        39.4860    26.1054    57.9832 H            1 GTP1012   0.0000
    34 H5'2        40.5396    26.2367    56.7425 H            1 GTP1012   0.0000
    35 H4'         40.4958    23.9918    57.6779 H            1 GTP1012   0.0000
    36 H3'         39.6775    24.2193    54.9250 H            1 GTP1012   0.0000
    37 H5          41.8136    24.5526    54.9177 H            1 GTP1012   0.0000
    38 H2'         39.4095    21.9198    54.8831 H            1 GTP1012   0.0000
    39 H7          40.6495    21.9173    57.4234 H            1 GTP1012   0.0000
    40 H1'         38.1996    21.7756    57.2174 H            1 GTP1012   0.0000
    41 H9          36.6037    24.7240    55.7952 H            1 GTP1012   0.0000
    42 H10         34.7488    19.3389    52.7058 H            1 GTP1012   0.0000
    43 H11         37.4386    17.8898    54.5232 H            1 GTP1012   0.0000
    44 H12         36.1683    17.5951    53.3833 H            1 GTP1012   0.0000
    45 H13         34.8141    24.1139    54.1218 H            1 GTP1012   0.0000
@<TRIPOS>BOND
     1    1    2      ar
     2    1    3      ar
     3    1    4      ar
     4    1    5       1
     5    5    6       1
     6    6    7      ar
     7    6    8      ar
     8    6    9       1
     9    9   10       1
    10   10   11      ar
    11   10   12      ar
    12   10   13       1
    13   13   14       1
    14   14   15       1
    15   15   16       1
    16   15   17       1
    17   16   21       1
    18   17   18       1
    19   17   19       1
    20   19   20       1
    21   19   21       1
    22   21   22       1
    23   22   23       1
    24   22   32       1
    25   23   24       2
    26   24   25       1
    27   25   26       1
    28   25   32       2
    29   26   27       2
    30   26   28       1
    31   28   29       1
    32   29   30       1
    33   29   31       2
    34   31   32       1
    35   30   44       1
    36   30   43       1
    37   28   42       1
    38   23   41       1
    39   14   33       1
    40   14   34       1
    41   15   35       1
    42   17   36       1
    43   18   37       1
    44   19   38       1
    45   20   39       1
    46   21   40       1
    47   24   45       1
@<TRIPOS>SUBSTRUCTURE
     1 GTP1012     1 GROUP             4 A     GTP     0 **** GTP A1012
