@<TRIPOS>MOLECULE
1vcf_FMN_1_ligand
   50    52     1     0     0
SMALL
NO_CHARGES


@<TRIPOS>ATOM
     1 N1         112.0010    -7.9060    25.7560 N.2          1 FMN501   0.0000
     2 C2         110.9220    -8.3880    25.1270 C.2          1 FMN501   0.0000
     3 O2         110.7160    -8.4620    23.9200 O.2          1 FMN501   0.0000
     4 N3         109.8150    -8.9020    25.9480 N.pl3        1 FMN501   0.0000
     5 C4         109.8530    -8.9060    27.3790 C.2          1 FMN501   0.0000
     6 O4         108.8350    -9.3730    27.9180 O.2          1 FMN501   0.0000
     7 C4A        110.9980    -8.3950    27.9610 C.2          1 FMN501   0.0000
     8 N5         111.0720    -8.3780    29.2620 N.2          1 FMN501   0.0000
     9 C5A        112.2270    -7.8530    29.9130 C.ar         1 FMN501   0.0000
    10 C6         112.3580    -7.8000    31.3270 C.ar         1 FMN501   0.0000
    11 C7         113.5620    -7.2390    31.9350 C.ar         1 FMN501   0.0000
    12 C7M        113.4200    -7.3080    33.4560 C.3          1 FMN501   0.0000
    13 C8         114.6510    -6.7260    31.0920 C.ar         1 FMN501   0.0000
    14 C8M        115.8530    -6.1620    31.7250 C.3          1 FMN501   0.0000
    15 C9         114.5350    -6.7760    29.7180 C.ar         1 FMN501   0.0000
    16 C9A        113.3230    -7.3370    29.0410 C.ar         1 FMN501   0.0000
    17 N10        113.2870    -7.3420    27.6490 N.pl3        1 FMN501   0.0000
    18 C10        112.1460    -7.8590    27.0890 C.2          1 FMN501   0.0000
    19 C1'        114.3100    -6.8590    26.7250 C.3          1 FMN501   0.0000
    20 C2'        114.2730    -5.3690    26.4400 C.3          1 FMN501   0.0000
    21 O2'        113.0370    -5.0270    25.8690 O.3          1 FMN501   0.0000
    22 C3'        115.4030    -5.0460    25.4910 C.3          1 FMN501   0.0000
    23 O3'        116.1930    -6.2180    25.1520 O.3          1 FMN501   0.0000
    24 C4'        116.4680    -4.0300    25.9750 C.3          1 FMN501   0.0000
    25 O4'        117.4570    -3.8270    25.0080 O.3          1 FMN501   0.0000
    26 C5'        117.1740    -4.2970    27.3490 C.3          1 FMN501   0.0000
    27 O5'        117.0230    -3.0140    28.0210 O.3          1 FMN501   0.0000
    28 P          117.8800    -1.8170    27.4840 P.3          1 FMN501   0.0000
    29 O1P        117.7510    -0.4110    28.0910 O.co2        1 FMN501   0.0000
    30 O2P        119.1510    -2.1610    26.7700 O.co2        1 FMN501  -1.0000
    31 O3P        118.6160    -2.0850    28.7900 O.co2        1 FMN501  -1.0000
    32 H1         109.0036    -9.2630    25.4882 H            1 FMN501   0.0000
    33 H2         111.6227    -8.1483    31.9084 H            1 FMN501   0.0000
    34 H7M1       114.2388    -6.9265    33.8849 H            1 FMN501   0.0000
    35 H7M2       112.6188    -6.7815    33.7402 H            1 FMN501   0.0000
    36 H7M3       113.3095    -8.2612    33.7376 H            1 FMN501   0.0000
    37 H8M1       116.4921    -5.8606    31.0174 H            1 FMN501   0.0000
    38 H8M2       115.5947    -5.3820    32.2950 H            1 FMN501   0.0000
    39 H8M3       116.2893    -6.8599    32.2929 H            1 FMN501   0.0000
    40 H9         115.2847    -6.4262    29.1561 H            1 FMN501   0.0000
    41 H1'1       114.1960    -7.3427    25.8572 H            1 FMN501   0.0000
    42 H1'2       115.2053    -7.0774    27.1133 H            1 FMN501   0.0000
    43 H2'        114.3983    -4.8626    27.2931 H            1 FMN501   0.0000
    44 H13        112.3894    -4.7901    26.5932 H            1 FMN501   0.0000
    45 H3'        115.0023    -4.6913    24.6462 H            1 FMN501   0.0000
    46 H15        116.9259    -5.9558    24.5242 H            1 FMN501   0.0000
    47 H4'        115.9926    -3.1557    26.0730 H            1 FMN501   0.0000
    48 H17        118.1272    -3.1682    25.3498 H            1 FMN501   0.0000
    49 H5'1       118.1383    -4.5299    27.2229 H            1 FMN501   0.0000
    50 H5'2       116.7179    -5.0286    27.8558 H            1 FMN501   0.0000
@<TRIPOS>BOND
     1    1    2       1
     2    1   18       2
     3    2    3       2
     4    2    4       1
     5    4    5       1
     6    5    6       2
     7    5    7       1
     8    7    8       2
     9    7   18       1
    10    8    9       1
    11    9   10      ar
    12    9   16      ar
    13   10   11      ar
    14   11   12       1
    15   11   13      ar
    16   13   14       1
    17   13   15      ar
    18   15   16      ar
    19   16   17       1
    20   17   18       1
    21   17   19       1
    22   19   20       1
    23   20   21       1
    24   20   22       1
    25   22   23       1
    26   22   24       1
    27   24   25       1
    28   24   26       1
    29   26   27       1
    30   27   28       1
    31   28   29      ar
    32   28   30      ar
    33   28   31      ar
    34    4   32       1
    35   10   33       1
    36   12   34       1
    37   12   35       1
    38   12   36       1
    39   14   37       1
    40   14   38       1
    41   14   39       1
    42   15   40       1
    43   19   41       1
    44   19   42       1
    45   20   43       1
    46   21   44       1
    47   22   45       1
    48   23   46       1
    49   24   47       1
    50   25   48       1
    51   26   49       1
    52   26   50       1
@<TRIPOS>SUBSTRUCTURE
     1 FMN501      1 GROUP             4 A     FMN     0 **** FMN A 501
