@<TRIPOS>MOLECULE
4kn2_LYA_3_ligand
   50    52     1     0     0
SMALL
NO_CHARGES


@<TRIPOS>ATOM
     1 C1          23.2820    60.4830    11.9770 C.ar         1 LYA304   0.0000
     2 C2          21.9260    60.7800    11.9180 C.ar         1 LYA304   0.0000
     3 C3          21.3990    61.3860    10.7800 C.ar         1 LYA304   0.0000
     4 C4          22.2400    61.6890     9.7170 C.ar         1 LYA304   0.0000
     5 C5          23.5890    61.3950     9.7860 C.ar         1 LYA304   0.0000
     6 C6          24.1160    60.7990    10.9210 C.ar         1 LYA304   0.0000
     7 C7          23.8620    59.8330    13.2240 C.3          1 LYA304   0.0000
     8 C8          24.8180    58.6710    13.1580 C.3          1 LYA304   0.0000
     9 C9          24.9090    57.9870    14.5210 C.2          1 LYA304   0.0000
    10 C10         25.3420    58.5870    15.7000 C.2          1 LYA304   0.0000
    11 N11         25.2580    57.6700    16.6800 N.pl3        1 LYA304   0.0000
    12 C12         24.7820    56.5150    16.1770 C.2          1 LYA304   0.0000
    13 C13         24.5480    56.6800    14.8210 C.2          1 LYA304   0.0000
    14 C14         24.0200    55.5600    14.0140 C.2          1 LYA304   0.0000
    15 O15         23.8210    55.7300    12.8320 O.2          1 LYA304   0.0000
    16 N16         23.7420    54.3030    14.6130 N.2          1 LYA304   0.0000
    17 C17         23.9840    54.1450    16.0180 C.2          1 LYA304   0.0000
    18 N18         24.5040    55.2430    16.8000 N.pl3        1 LYA304   0.0000
    19 N19         23.7210    52.8900    16.6710 N.pl3        1 LYA304   0.0000
    20 C20         21.7070    62.3560     8.4560 C.2          1 LYA304   0.0000
    21 O21         22.3770    63.2230     7.9380 O.2          1 LYA304   0.0000
    22 N22         20.4240    61.9650     7.8980 N.am         1 LYA304   0.0000
    23 C23         19.8880    62.5550     6.6790 C.3          1 LYA304   0.0000
    24 C24         19.9620    61.5930     5.5160 C.3          1 LYA304   0.0000
    25 C25         21.3160    61.0710     5.0990 C.3          1 LYA304   0.0000
    26 C26         21.3950    59.8790     4.1760 C.2          1 LYA304   0.0000
    27 O27         22.2580    59.8450     3.2460 O.co2        1 LYA304   0.0000
    28 O28         20.6080    58.8990     4.3230 O.co2        1 LYA304  -1.0000
    29 C29         18.4640    62.9490     6.9520 C.2          1 LYA304   0.0000
    30 O30         18.1760    63.6410     7.9770 O.co2        1 LYA304   0.0000
    31 O31         17.5390    62.5870     6.1680 O.co2        1 LYA304  -1.0000
    32 H1          21.3302    60.5593    12.6902 H            1 LYA304   0.0000
    33 H2          20.4237    61.6010    10.7288 H            1 LYA304   0.0000
    34 H3          24.1866    61.6131     9.0145 H            1 LYA304   0.0000
    35 H4          25.0942    60.5987    10.9756 H            1 LYA304   0.0000
    36 H5          23.0805    59.5199    13.7636 H            1 LYA304   0.0000
    37 H6          24.3398    60.5585    13.7193 H            1 LYA304   0.0000
    38 H7          25.7236    59.0025    12.8933 H            1 LYA304   0.0000
    39 H8          24.4923    58.0131    12.4790 H            1 LYA304   0.0000
    40 H9          25.6586    59.5303    15.8002 H            1 LYA304   0.0000
    41 H10         25.5103    57.8224    17.6356 H            1 LYA304   0.0000
    42 H11         23.8932    52.7905    17.6510 H            1 LYA304   0.0000
    43 H12         23.3660    52.1173    16.1448 H            1 LYA304   0.0000
    44 H13         19.8884    61.2640     8.3688 H            1 LYA304   0.0000
    45 H14         20.4149    63.3752     6.4562 H            1 LYA304   0.0000
    46 H15         19.5674    62.0573     4.7231 H            1 LYA304   0.0000
    47 H16         19.3998    60.8004     5.7521 H            1 LYA304   0.0000
    48 H17         21.8044    60.8248     5.9362 H            1 LYA304   0.0000
    49 H18         21.7919    61.8241     4.6446 H            1 LYA304   0.0000
    50 H19         24.6722    55.1210    17.7782 H            1 LYA304   0.0000
@<TRIPOS>BOND
     1    1    2      ar
     2    1    6      ar
     3    1    7       1
     4    2    3      ar
     5    3    4      ar
     6    4    5      ar
     7    4   20       1
     8    5    6      ar
     9    7    8       1
    10    8    9       1
    11    9   10       2
    12    9   13       1
    13   10   11       1
    14   11   12       1
    15   12   13       2
    16   12   18       1
    17   13   14       1
    18   14   15       2
    19   14   16       1
    20   16   17       2
    21   17   18       1
    22   17   19       1
    23   20   21       2
    24   20   22      am
    25   22   23       1
    26   23   24       1
    27   23   29       1
    28   24   25       1
    29   25   26       1
    30   26   27      ar
    31   26   28      ar
    32   29   30      ar
    33   29   31      ar
    34    2   32       1
    35    3   33       1
    36    5   34       1
    37    6   35       1
    38    7   36       1
    39    7   37       1
    40    8   38       1
    41    8   39       1
    42   10   40       1
    43   11   41       1
    44   25   49       1
    45   19   42       1
    46   19   43       1
    47   22   44       1
    48   23   45       1
    49   24   46       1
    50   24   47       1
    51   25   48       1
    52   18   50       1
@<TRIPOS>SUBSTRUCTURE
     1 LYA304      1 GROUP             4 C     LYA     0 **** LYA C 304
