@<TRIPOS>MOLECULE
1kvr_NAD_1_ligand
   70    74     1     0     0
SMALL
NO_CHARGES


@<TRIPOS>ATOM
     1 PA          30.9740     4.9370    37.6620 P.3          1 NAD340   0.0000
     2 O1A         31.4190     6.0860    36.8730 O.co2        1 NAD340   0.0000
     3 O2A         31.2110     5.1860    39.1080 O.co2        1 NAD340  -1.0000
     4 O5B         31.7280     3.6170    37.3570 O.3          1 NAD340   0.0000
     5 C5B         32.1980     3.3810    36.0010 C.3          1 NAD340   0.0000
     6 C4B         33.6780     3.0760    36.0780 C.3          1 NAD340   0.0000
     7 O4B         34.1430     2.7070    34.7370 O.3          1 NAD340   0.0000
     8 C3B         34.5730     4.2070    36.5940 C.3          1 NAD340   0.0000
     9 O3B         35.4640     3.7700    37.6660 O.3          1 NAD340   0.0000
    10 C2B         35.3690     4.5980    35.3010 C.3          1 NAD340   0.0000
    11 O2B         36.7360     5.0170    35.6200 O.3          1 NAD340   0.0000
    12 C1B         35.4130     3.2730    34.5200 C.3          1 NAD340   0.0000
    13 N9A         35.5640     3.4500    33.0560 N.pl3        1 NAD340   0.0000
    14 C8A         34.8350     4.2840    32.2310 C.2          1 NAD340   0.0000
    15 N7A         35.1210     4.0810    30.9520 N.2          1 NAD340   0.0000
    16 C5A         36.1130     3.1000    30.9730 C.ar         1 NAD340   0.0000
    17 C6A         36.8110     2.4560    29.9560 C.ar         1 NAD340   0.0000
    18 N6A         36.7140     2.7080    28.6990 N.pl3        1 NAD340   0.0000
    19 N1A         37.7690     1.5590    30.2900 N.ar         1 NAD340   0.0000
    20 C2A         37.9600     1.2940    31.6070 C.ar         1 NAD340   0.0000
    21 N3A         37.3750     1.8160    32.6440 N.ar         1 NAD340   0.0000
    22 C4A         36.4360     2.7250    32.2460 C.ar         1 NAD340   0.0000
    23 O3          29.4850     4.6440    37.4580 O.3          1 NAD340   0.0000
    24 PN          28.4800     3.6090    38.1460 P.3          1 NAD340   0.0000
    25 O1N         27.4340     4.4180    38.7660 O.co2        1 NAD340   0.0000
    26 O2N         29.2720     2.7320    39.0620 O.co2        1 NAD340  -1.0000
    27 O5D         27.8430     2.7730    36.9490 O.3          1 NAD340   0.0000
    28 C5D         28.4150     1.4960    36.6070 C.3          1 NAD340   0.0000
    29 C4D         27.6970     0.9860    35.3980 C.3          1 NAD340   0.0000
    30 O4D         26.2760     0.9190    35.6510 O.3          1 NAD340   0.0000
    31 C3D         27.8800     1.8330    34.1250 C.3          1 NAD340   0.0000
    32 O3D         27.9760     0.9800    33.0000 O.3          1 NAD340   0.0000
    33 C2D         26.6070     2.6590    34.1400 C.3          1 NAD340   0.0000
    34 O2D         26.2340     3.1530    32.8330 O.3          1 NAD340   0.0000
    35 C1D         25.6160     1.6470    34.6880 C.3          1 NAD340   0.0000
    36 N1N         24.4300     2.2380    35.2570 N.ar         1 NAD340   1.0000
    37 C2N         24.4630     3.1000    36.3170 C.ar         1 NAD340   0.0000
    38 C3N         23.2790     3.8190    36.7780 C.ar         1 NAD340   0.0000
    39 C7N         23.4700     4.7520    37.9300 C.2          1 NAD340   0.0000
    40 O7N         22.4720     5.3740    38.2570 O.2          1 NAD340   0.0000
    41 N7N         24.6550     4.9510    38.5880 N.am         1 NAD340   0.0000
    42 C4N         21.9440     3.3520    36.3300 C.ar         1 NAD340   0.0000
    43 C5N         22.0180     2.2630    35.2900 C.ar         1 NAD340   0.0000
    44 C6N         23.1760     1.8690    34.7580 C.ar         1 NAD340   0.0000
    45 H5B1        32.0461     4.1952    35.4406 H            1 NAD340   0.0000
    46 H5B2        31.7101     2.6052    35.6009 H            1 NAD340   0.0000
    47 H4B         33.8009     2.2851    36.6775 H            1 NAD340   0.0000
    48 H3B         34.0140     4.9770    36.9017 H            1 NAD340   0.0000
    49 H5          36.0562     3.0378    37.3296 H            1 NAD340   0.0000
    50 H2B         34.8879     5.3051    34.7827 H            1 NAD340   0.0000
    51 H7          37.2172     4.2670    36.0738 H            1 NAD340   0.0000
    52 H1B         36.1307     2.6762    34.8787 H            1 NAD340   0.0000
    53 H8A         34.1728     4.9582    32.5580 H            1 NAD340   0.0000
    54 H6A1        37.2596     2.1886    28.0414 H            1 NAD340   0.0000
    55 H6A2        36.0929     3.4234    28.3789 H            1 NAD340   0.0000
    56 H2A         38.6490     0.5979    31.8087 H            1 NAD340   0.0000
    57 H5D1        28.2994     0.8564    37.3670 H            1 NAD340   0.0000
    58 H5D2        29.3888     1.6018    36.4056 H            1 NAD340   0.0000
    59 H4D         28.0244     0.0606    35.2073 H            1 NAD340   0.0000
    60 H3D         28.6869     2.4190    34.1988 H            1 NAD340   0.0000
    61 H17         28.5498     1.4105    32.3033 H            1 NAD340   0.0000
    62 H2D         26.7032     3.4225    34.7786 H            1 NAD340   0.0000
    63 H19         26.9042     2.8465    32.1571 H            1 NAD340   0.0000
    64 H1D         25.3447     1.0304    33.9489 H            1 NAD340   0.0000
    65 H2N         25.3299     3.2435    36.7943 H            1 NAD340   0.0000
    66 H7N1        24.7008     5.5947    39.3519 H            1 NAD340   0.0000
    67 H7N2        25.4742     4.4525    38.3044 H            1 NAD340   0.0000
    68 H4N         21.0838     3.7214    36.6816 H            1 NAD340   0.0000
    69 H5N         21.1722     1.8221    34.9895 H            1 NAD340   0.0000
    70 H6N         23.1461     1.2744    33.9545 H            1 NAD340   0.0000
@<TRIPOS>BOND
     1    1    2      ar
     2    1    3      ar
     3    1    4       1
     4    1   23       1
     5    4    5       1
     6    5    6       1
     7    6    7       1
     8    6    8       1
     9    7   12       1
    10    8    9       1
    11    8   10       1
    12   10   11       1
    13   10   12       1
    14   12   13       1
    15   13   14       1
    16   13   22       1
    17   14   15       2
    18   15   16       1
    19   16   17      ar
    20   16   22      ar
    21   17   18       1
    22   17   19      ar
    23   19   20      ar
    24   20   21      ar
    25   21   22      ar
    26   23   24       1
    27   24   25      ar
    28   24   26      ar
    29   24   27       1
    30   27   28       1
    31   28   29       1
    32   29   30       1
    33   29   31       1
    34   30   35       1
    35   31   32       1
    36   31   33       1
    37   33   34       1
    38   33   35       1
    39   35   36       1
    40   36   37      ar
    41   36   44      ar
    42   37   38      ar
    43   38   39       1
    44   38   42      ar
    45   39   40       2
    46   39   41      am
    47   42   43      ar
    48   43   44      ar
    49   44   70       1
    50    5   45       1
    51    5   46       1
    52    6   47       1
    53    8   48       1
    54    9   49       1
    55   10   50       1
    56   11   51       1
    57   12   52       1
    58   14   53       1
    59   18   54       1
    60   18   55       1
    61   20   56       1
    62   43   69       1
    63   28   57       1
    64   28   58       1
    65   29   59       1
    66   31   60       1
    67   32   61       1
    68   33   62       1
    69   34   63       1
    70   35   64       1
    71   37   65       1
    72   41   66       1
    73   41   67       1
    74   42   68       1
@<TRIPOS>SUBSTRUCTURE
     1 NAD340      1 GROUP             4 A     NAD     0 **** NAD A 340
