@<TRIPOS>MOLECULE
1t32_OHH_1_ligand
   82    88     1     0     0
SMALL
NO_CHARGES


@<TRIPOS>ATOM
     1 O6          12.2900    76.8260     5.0230 O.2          1 OHH901   0.0000
     2 P1          10.0080    67.5470     6.5890 P.3          1 OHH901   0.0000
     3 O1           8.4840    67.2520     6.8930 O.co2        1 OHH901   0.0000
     4 O3          10.3390    66.5300     5.5010 O.co2        1 OHH901  -1.0000
     5 O2          10.8370    67.2750     7.7990 O.co2        1 OHH901  -1.0000
     6 C9          10.4900    69.1160     5.9740 C.3          1 OHH901   0.0000
     7 O4           8.4970    69.7310     4.7890 O.2          1 OHH901   0.0000
     8 C10          9.6560    69.4210     4.7300 C.2          1 OHH901   0.0000
     9 C17         13.4310    67.7340     1.5920 C.ar         1 OHH901   0.0000
    10 C16         14.0610    67.7070     0.2840 C.ar         1 OHH901   0.0000
    11 C15         13.4720    68.4660    -0.8420 C.ar         1 OHH901   0.0000
    12 C14         12.2600    69.2710    -0.7210 C.ar         1 OHH901   0.0000
    13 C4B         11.5830    69.3240     0.5990 C.ar         1 OHH901   0.0000
    14 C8B         12.1860    68.5200     1.8380 C.ar         1 OHH901   0.0000
    15 C18         11.5640    68.5460     3.1470 C.ar         1 OHH901   0.0000
    16 C11         10.3350    69.3490     3.3380 C.ar         1 OHH901   0.0000
    17 C12          9.7210    70.1350     2.1730 C.ar         1 OHH901   0.0000
    18 C13         10.3650    70.0990     0.8260 C.ar         1 OHH901   0.0000
    19 O5           7.4070    70.5060     1.7450 O.2          1 OHH901   0.0000
    20 C19          8.4420    71.0440     2.1760 C.2          1 OHH901   0.0000
    21 C1          10.3350    72.5980     9.0280 C.ar         1 OHH901   0.0000
    22 C2           9.1320    71.8380     8.8430 C.ar         1 OHH901   0.0000
    23 C3           9.0680    70.6840     7.8760 C.ar         1 OHH901   0.0000
    24 C4          10.2180    70.2350     7.0330 C.ar         1 OHH901   0.0000
    25 C4A         11.5970    71.0600     7.1890 C.ar         1 OHH901   0.0000
    26 C8A         11.5650    72.3060     8.2860 C.ar         1 OHH901   0.0000
    27 C8          12.7960    73.1330     8.5200 C.ar         1 OHH901   0.0000
    28 C7          14.0320    72.8690     7.7970 C.ar         1 OHH901   0.0000
    29 C6          14.1110    71.7530     6.7840 C.ar         1 OHH901   0.0000
    30 C5          12.9230    70.8980     6.5130 C.ar         1 OHH901   0.0000
    31 N1           8.5290    72.4060     2.6580 N.am         1 OHH901   0.0000
    32 C20          7.3100    73.2940     2.6650 C.3          1 OHH901   0.0000
    33 C24         12.2310    73.9170     2.7090 C.3          1 OHH901   0.0000
    34 N2          11.9620    74.8410     3.9140 N.am         1 OHH901   0.0000
    35 C23         11.1900    74.1620     5.0490 C.3          1 OHH901   0.0000
    36 C22          9.7930    73.6660     4.4930 C.3          1 OHH901   0.0000
    37 C21          9.9780    72.8410     3.1350 C.3          1 OHH901   0.0000
    38 C25         10.8450    73.6000     2.0860 C.3          1 OHH901   0.0000
    39 C26         12.4400    76.1780     3.9610 C.2          1 OHH901   0.0000
    40 C29         15.2240    78.2560     1.9530 C.ar         1 OHH901   0.0000
    41 C28         14.4820    77.5740     3.0170 C.ar         1 OHH901   0.0000
    42 C27         13.1730    76.8880     2.7590 C.ar         1 OHH901   0.0000
    43 C34         12.6210    76.9100     1.3590 C.ar         1 OHH901   0.0000
    44 C8C         13.3130    77.5590     0.2870 C.ar         1 OHH901   0.0000
    45 C4C         14.6870    78.2730     0.5920 C.ar         1 OHH901   0.0000
    46 C30         15.3860    78.9230    -0.5060 C.ar         1 OHH901   0.0000
    47 C31         14.8020    78.9020    -1.8600 C.ar         1 OHH901   0.0000
    48 C32         13.5130    78.2410    -2.1440 C.ar         1 OHH901   0.0000
    49 C33         12.7730    77.5700    -1.0760 C.ar         1 OHH901   0.0000
    50 H1          11.4612    69.1031     5.7362 H            1 OHH901   0.0000
    51 H2          13.8394    67.2155     2.3432 H            1 OHH901   0.0000
    52 H3          14.8954    67.1740     0.1435 H            1 OHH901   0.0000
    53 H4          13.9276    68.4253    -1.7313 H            1 OHH901   0.0000
    54 H5          11.8960    69.7728    -1.5057 H            1 OHH901   0.0000
    55 H6          11.9582    68.0305     3.9078 H            1 OHH901   0.0000
    56 H7           9.9577    70.6115     0.0701 H            1 OHH901   0.0000
    57 H8          10.3342    73.3519     9.6850 H            1 OHH901   0.0000
    58 H9           8.3163    72.0800     9.3685 H            1 OHH901   0.0000
    59 H10          8.2035    70.1883     7.7932 H            1 OHH901   0.0000
    60 H11         12.7665    73.8793     9.1850 H            1 OHH901   0.0000
    61 H12         14.8381    73.4338     7.9737 H            1 OHH901   0.0000
    62 H13         14.9658    71.5871     6.2923 H            1 OHH901   0.0000
    63 H14         13.0166    70.1683     5.8357 H            1 OHH901   0.0000
    64 H15          7.5546    74.1930     3.0282 H            1 OHH901   0.0000
    65 H16          6.9652    73.3941     1.7317 H            1 OHH901   0.0000
    66 H17          6.6020    72.8836     3.2397 H            1 OHH901   0.0000
    67 H18         12.6758    73.0740     3.0115 H            1 OHH901   0.0000
    68 H19         12.8134    74.3799     2.0408 H            1 OHH901   0.0000
    69 H20         11.0430    74.8145     5.7924 H            1 OHH901   0.0000
    70 H21         11.7124    73.3804     5.3898 H            1 OHH901   0.0000
    71 H22          9.2105    74.4595     4.3170 H            1 OHH901   0.0000
    72 H23          9.3588    73.0787     5.1761 H            1 OHH901   0.0000
    73 H24         10.4712    72.0030     3.3685 H            1 OHH901   0.0000
    74 H25         10.9652    73.0287     1.2741 H            1 OHH901   0.0000
    75 H26         10.3901    74.4527     1.8291 H            1 OHH901   0.0000
    76 H27         16.0929    78.7074     2.1561 H            1 OHH901   0.0000
    77 H28         14.8596    77.5657     3.9429 H            1 OHH901   0.0000
    78 H29         11.7479    76.4594     1.1728 H            1 OHH901   0.0000
    79 H30         16.2592    79.3823    -0.3432 H            1 OHH901   0.0000
    80 H31         15.2936    79.3486    -2.6076 H            1 OHH901   0.0000
    81 H32         13.1433    78.2521    -3.0731 H            1 OHH901   0.0000
    82 H33         11.9021    77.1204    -1.2745 H            1 OHH901   0.0000
@<TRIPOS>BOND
     1    1   39       2
     2    2    3      ar
     3    2    4      ar
     4    2    5      ar
     5    2    6       1
     6    6    8       1
     7    6   24       1
     8    7    8       2
     9    8   16       1
    10    9   10      ar
    11    9   14      ar
    12   10   11      ar
    13   11   12      ar
    14   12   13      ar
    15   13   14      ar
    16   13   18      ar
    17   14   15      ar
    18   15   16      ar
    19   16   17      ar
    20   17   18      ar
    21   17   20       1
    22   19   20       2
    23   20   31      am
    24   21   22      ar
    25   21   26      ar
    26   22   23      ar
    27   23   24      ar
    28   24   25      ar
    29   25   26      ar
    30   25   30      ar
    31   26   27      ar
    32   27   28      ar
    33   28   29      ar
    34   29   30      ar
    35   31   32       1
    36   31   37       1
    37   33   34       1
    38   33   38       1
    39   34   35       1
    40   34   39      am
    41   35   36       1
    42   36   37       1
    43   37   38       1
    44   39   42       1
    45   40   41      ar
    46   40   45      ar
    47   41   42      ar
    48   42   43      ar
    49   43   44      ar
    50   44   45      ar
    51   44   49      ar
    52   45   46      ar
    53   46   47      ar
    54   47   48      ar
    55   48   49      ar
    56   49   82       1
    57   48   81       1
    58    6   50       1
    59    9   51       1
    60   10   52       1
    61   11   53       1
    62   12   54       1
    63   15   55       1
    64   18   56       1
    65   21   57       1
    66   22   58       1
    67   23   59       1
    68   27   60       1
    69   28   61       1
    70   29   62       1
    71   30   63       1
    72   32   64       1
    73   32   65       1
    74   32   66       1
    75   33   67       1
    76   33   68       1
    77   35   69       1
    78   35   70       1
    79   36   71       1
    80   36   72       1
    81   37   73       1
    82   38   74       1
    83   38   75       1
    84   40   76       1
    85   41   77       1
    86   43   78       1
    87   46   79       1
    88   47   80       1
@<TRIPOS>SUBSTRUCTURE
     1 OHH901      1 GROUP             4 A     OHH     0 **** OHH A 901
