@<TRIPOS>MOLECULE
3a4p_DFQ_1_ligand
   45    47     1     0     0
SMALL
NO_CHARGES


@<TRIPOS>ATOM
     1 C1         -26.4880   -19.7530    -2.5780 C.3          1 DFQ1362   0.0000
     2 N2         -25.5060   -20.3830    -1.6950 N.am         1 DFQ1362   0.0000
     3 C4         -24.3700   -19.7870    -1.2970 C.2          1 DFQ1362   0.0000
     4 O5         -23.9990   -18.6600    -1.6490 O.2          1 DFQ1362   0.0000
     5 C6         -23.5800   -20.5570    -0.4260 C.2          1 DFQ1362   0.0000
     6 C7         -22.3230   -20.1790     0.0650 C.2          1 DFQ1362   0.0000
     7 C8         -21.7330   -20.9370     1.1060 C.ar         1 DFQ1362   0.0000
     8 C9         -20.9730   -20.2930     2.0910 C.ar         1 DFQ1362   0.0000
     9 C10        -20.4290   -21.0120     3.1350 C.ar         1 DFQ1362   0.0000
    10 C11        -19.6360   -20.3770     4.0830 C.ar         1 DFQ1362   0.0000
    11 C12        -21.9490   -22.2980     1.3090 C.ar         1 DFQ1362   0.0000
    12 N13        -21.4330   -22.9740     2.3300 N.ar         1 DFQ1362   0.0000
    13 C14        -20.6780   -22.3830     3.2490 C.ar         1 DFQ1362   0.0000
    14 C15        -20.1370   -23.1410     4.2900 C.ar         1 DFQ1362   0.0000
    15 C16        -19.3700   -22.5020     5.2560 C.ar         1 DFQ1362   0.0000
    16 C17        -19.1010   -21.1400     5.1550 C.ar         1 DFQ1362   0.0000
    17 O18        -18.3020   -20.5960     6.1210 O.3          1 DFQ1362   0.0000
    18 C19        -17.8120   -19.1660     6.1240 C.3          1 DFQ1362   0.0000
    19 C20        -16.4480   -19.0800     6.8660 C.3          1 DFQ1362   0.0000
    20 C21        -18.9650   -18.3240     6.7330 C.ar         1 DFQ1362   0.0000
    21 C22        -19.6940   -18.6780     7.8930 C.ar         1 DFQ1362   0.0000
    22 CL23       -19.3510   -20.0890     8.8320 Cl           1 DFQ1362   0.0000
    23 C24        -20.7350   -17.8510     8.3660 C.ar         1 DFQ1362   0.0000
    24 F25        -21.4380   -18.1690     9.4760 F            1 DFQ1362   0.0000
    25 C26        -21.0700   -16.6850     7.6920 C.ar         1 DFQ1362   0.0000
    26 C27        -20.3740   -16.3540     6.5420 C.ar         1 DFQ1362   0.0000
    27 C28        -19.3480   -17.1660     6.0850 C.ar         1 DFQ1362   0.0000
    28 CL29       -18.5320   -16.6870     4.6710 Cl           1 DFQ1362   0.0000
    29 H1         -27.2480   -20.3837    -2.7351 H            1 DFQ1362   0.0000
    30 H2         -26.8318   -18.9165    -2.1512 H            1 DFQ1362   0.0000
    31 H3         -26.0554   -19.5283    -3.4511 H            1 DFQ1362   0.0000
    32 H4         -25.6912   -21.3101    -1.3693 H            1 DFQ1362   0.0000
    33 H5         -23.9426   -21.4422    -0.1344 H            1 DFQ1362   0.0000
    34 H6         -21.8488   -19.3846    -0.3146 H            1 DFQ1362   0.0000
    35 H7         -20.8239   -19.3057     2.0369 H            1 DFQ1362   0.0000
    36 H8         -19.4449   -19.3980     4.0116 H            1 DFQ1362   0.0000
    37 H9         -22.5211   -22.7911     0.6535 H            1 DFQ1362   0.0000
    38 H10        -20.2990   -24.1266     4.3391 H            1 DFQ1362   0.0000
    39 H11        -19.0088   -23.0238     6.0288 H            1 DFQ1362   0.0000
    40 H12        -17.6754   -18.8766     5.1766 H            1 DFQ1362   0.0000
    41 H13        -16.1275   -18.1327     6.8657 H            1 DFQ1362   0.0000
    42 H14        -16.5611   -19.3933     7.8089 H            1 DFQ1362   0.0000
    43 H15        -15.7783   -19.6586     6.4005 H            1 DFQ1362   0.0000
    44 H16        -21.8018   -16.0939     8.0313 H            1 DFQ1362   0.0000
    45 H17        -20.6130   -15.5240     6.0380 H            1 DFQ1362   0.0000
@<TRIPOS>BOND
     1    1    2       1
     2    2    3      am
     3    3    4       2
     4    3    5       1
     5    5    6       2
     6    6    7       1
     7    7    8      ar
     8    7   11      ar
     9    8    9      ar
    10    9   10      ar
    11    9   13      ar
    12   10   16      ar
    13   11   12      ar
    14   12   13      ar
    15   13   14      ar
    16   14   15      ar
    17   15   16      ar
    18   16   17       1
    19   17   18       1
    20   18   19       1
    21   18   20       1
    22   20   21      ar
    23   20   27      ar
    24   21   22       1
    25   21   23      ar
    26   23   24       1
    27   23   25      ar
    28   25   26      ar
    29   26   27      ar
    30   27   28       1
    31    1   29       1
    32    1   30       1
    33    1   31       1
    34    2   32       1
    35    5   33       1
    36    6   34       1
    37    8   35       1
    38   10   36       1
    39   11   37       1
    40   14   38       1
    41   15   39       1
    42   18   40       1
    43   19   41       1
    44   19   42       1
    45   19   43       1
    46   25   44       1
    47   26   45       1
@<TRIPOS>SUBSTRUCTURE
     1 DFQ1362     1 GROUP             4 A     DFQ     0 **** DFQ A1362
