@<TRIPOS>MOLECULE
2oxn_OAN_1_ligand
   42    43     1     0     0
SMALL
NO_CHARGES


@<TRIPOS>ATOM
     1 CAH          6.0760    -9.0380    13.5880 C.3          1 OAN501   0.0000
     2 CAG          5.7730    -8.7620    12.1440 C.2          1 OAN501   0.0000
     3 OAN          6.5900    -8.2250    11.4090 O.2          1 OAN501   0.0000
     4 NAI          4.5650    -9.1310    11.7140 N.am         1 OAN501   0.0000
     5 CAB          4.1970    -8.9000    10.3120 C.3          1 OAN501   0.0000
     6 CAC          3.1290    -7.7990    10.3010 C.3          1 OAN501   0.0000
     7 OAJ          3.7980    -6.5570    10.5820 O.3          1 OAN501   0.0000
     8 CAD          2.4200    -7.7660     8.9440 C.3          1 OAN501   0.0000
     9 OAK          1.4540    -6.7000     8.9150 O.3          1 OAN501   0.0000
    10 CAE          1.7420    -9.1000     8.6200 C.3          1 OAN501   0.0000
    11 CAF          1.2520    -9.0700     7.1830 C.2          1 OAN501   0.0000
    12 OAM          2.0770    -9.1540     6.2710 O.2          1 OAN501   0.0000
    13 OAL          2.6360   -10.2260     8.7110 O.3          1 OAN501   0.0000
    14 CAA          3.7330   -10.1560     9.6430 C.2          1 OAN501   0.0000
    15 NAY          4.3760   -11.2080     9.8890 N.2          1 OAN501   0.0000
    16 OAQ          3.9440   -12.3300     9.2750 O.3          1 OAN501   0.0000
    17 CAP          4.7300   -13.5280     9.4400 C.2          1 OAN501   0.0000
    18 OAR          5.6450   -13.4650    10.2520 O.2          1 OAN501   0.0000
    19 NAO          4.3730   -14.5860     8.7070 N.am         1 OAN501   0.0000
    20 CAS          4.9760   -15.8540     8.6880 C.ar         1 OAN501   0.0000
    21 CAT          6.1030   -16.1600     9.4520 C.ar         1 OAN501   0.0000
    22 CAU          6.6520   -17.4330     9.3910 C.ar         1 OAN501   0.0000
    23 CAV          6.0970   -18.3990     8.5620 C.ar         1 OAN501   0.0000
    24 CAW          4.9720   -18.1060     7.7930 C.ar         1 OAN501   0.0000
    25 CAX          4.4180   -16.8270     7.8610 C.ar         1 OAN501   0.0000
    26 HAH1         5.2868    -9.4786    14.0159 H            1 OAN501   0.0000
    27 HAH2         6.8705    -9.6419    13.6524 H            1 OAN501   0.0000
    28 HAH3         6.2726    -8.1774    14.0578 H            1 OAN501   0.0000
    29 HAI          3.9160    -9.5612    12.3415 H            1 OAN501   0.0000
    30 HAB          5.0030    -8.5627     9.8256 H            1 OAN501   0.0000
    31 HAC          2.4582    -7.9826    11.0196 H            1 OAN501   0.0000
    32 HAJ          4.4891    -6.3844     9.8802 H            1 OAN501   0.0000
    33 HAD          3.1052    -7.5851     8.2385 H            1 OAN501   0.0000
    34 HAK          1.6845    -6.0611     8.1810 H            1 OAN501   0.0000
    35 HAE          0.9659    -9.2387     9.2351 H            1 OAN501   0.0000
    36 HAF          0.2766    -8.9836     6.9800 H            1 OAN501   0.0000
    37 HAO          3.5862   -14.4608     8.1026 H            1 OAN501   0.0000
    38 HAT          6.5136   -15.4643    10.0414 H            1 OAN501   0.0000
    39 HAU          7.4523   -17.6561     9.9475 H            1 OAN501   0.0000
    40 HAV          6.5068   -19.3100     8.5165 H            1 OAN501   0.0000
    41 HAW          4.5674   -18.8028     7.2007 H            1 OAN501   0.0000
    42 HAX          3.6126   -16.6065     7.3108 H            1 OAN501   0.0000
@<TRIPOS>BOND
     1    1    2       1
     2    2    3       2
     3    2    4      am
     4    4    5       1
     5    5    6       1
     6    5   14       1
     7    6    7       1
     8    6    8       1
     9    8    9       1
    10    8   10       1
    11   10   11       1
    12   10   13       1
    13   11   12       2
    14   13   14       1
    15   14   15       2
    16   15   16       1
    17   16   17       1
    18   17   18       2
    19   17   19      am
    20   19   20       1
    21   20   21      ar
    22   20   25      ar
    23   21   22      ar
    24   22   23      ar
    25   23   24      ar
    26   24   25      ar
    27    1   26       1
    28    1   27       1
    29    1   28       1
    30    4   29       1
    31    5   30       1
    32    6   31       1
    33    7   32       1
    34    8   33       1
    35    9   34       1
    36   10   35       1
    37   11   36       1
    38   19   37       1
    39   21   38       1
    40   22   39       1
    41   23   40       1
    42   24   41       1
    43   25   42       1
@<TRIPOS>SUBSTRUCTURE
     1 OAN501      1 GROUP             4 A     OAN     0 **** OAN A 501
