@<TRIPOS>MOLECULE
3au2_DGT_1_ligand
   43    45     1     0     0
SMALL
NO_CHARGES


@<TRIPOS>ATOM
     1 PG          17.7920     2.3220    -3.9590 P.3          1 DGT576   0.0000
     2 O1G         18.9860     2.9820    -4.6170 O.co2        1 DGT576   0.0000
     3 O2G         17.0470     1.3370    -4.8100 O.co2        1 DGT576  -1.0000
     4 O3G         18.1140     1.7570    -2.5910 O.co2        1 DGT576  -1.0000
     5 O3B         16.7000     3.4910    -3.6590 O.3          1 DGT576   0.0000
     6 PB          16.8560     5.0790    -3.8340 P.3          1 DGT576   0.0000
     7 O1B         15.6270     5.7240    -3.2800 O.co2        1 DGT576   0.0000
     8 O2B         18.1910     5.5460    -3.3160 O.co2        1 DGT576  -1.0000
     9 O3A         16.8030     5.2400    -5.4450 O.3          1 DGT576   0.0000
    10 PA          17.7810     5.8610    -6.5520 P.3          1 DGT576   0.0000
    11 O1A         19.2170     5.7620    -6.1580 O.co2        1 DGT576   0.0000
    12 O2A         17.3400     5.2330    -7.8320 O.co2        1 DGT576  -1.0000
    13 O5'         17.3170     7.3830    -6.6620 O.3          1 DGT576   0.0000
    14 C5'         17.5970     8.2980    -5.5820 C.3          1 DGT576   0.0000
    15 C4'         16.4580     9.2820    -5.4010 C.3          1 DGT576   0.0000
    16 O4'         16.3060     9.9930    -6.6240 O.3          1 DGT576   0.0000
    17 C3'         15.1060     8.6450    -5.1610 C.3          1 DGT576   0.0000
    18 O3'         14.8910     8.3420    -3.7930 O.3          1 DGT576   0.0000
    19 C2'         14.1430     9.7150    -5.6390 C.3          1 DGT576   0.0000
    20 C1'         14.9340    10.3870    -6.7610 C.3          1 DGT576   0.0000
    21 N9          14.4710    10.0000    -8.1220 N.pl3        1 DGT576   0.0000
    22 C8          14.3680    10.8670    -9.1470 C.2          1 DGT576   0.0000
    23 N7          13.9630    10.2600   -10.2860 N.2          1 DGT576   0.0000
    24 C5          13.7920     8.9550   -10.0040 C.2          1 DGT576   0.0000
    25 C6          13.3480     7.7600   -10.7560 C.2          1 DGT576   0.0000
    26 O6          13.0590     7.8200   -11.9760 O.2          1 DGT576   0.0000
    27 N1          13.2900     6.5900   -10.0950 N.pl3        1 DGT576   0.0000
    28 C2          13.5910     6.4770    -8.7820 C.2          1 DGT576   0.0000
    29 N2          13.5150     5.2600    -8.1770 N.pl3        1 DGT576   0.0000
    30 N3          13.9870     7.5390    -8.0350 N.2          1 DGT576   0.0000
    31 C4          14.1200     8.7790    -8.5850 C.2          1 DGT576   0.0000
    32 H5'1        18.4358     8.8018    -5.7883 H            1 DGT576   0.0000
    33 H5'2        17.7194     7.7790    -4.7360 H            1 DGT576   0.0000
    34 H4'         16.6716     9.9189    -4.6602 H            1 DGT576   0.0000
    35 H3'         15.0093     7.8196    -5.7171 H            1 DGT576   0.0000
    36 H5          15.2196     7.4173    -3.6008 H            1 DGT576   0.0000
    37 H2'1        13.9297    10.3630    -4.9079 H            1 DGT576   0.0000
    38 H2'2        13.2958     9.3115    -5.9845 H            1 DGT576   0.0000
    39 H1'         14.8662    11.3797    -6.6613 H            1 DGT576   0.0000
    40 H9          14.5674    11.8443    -9.0748 H            1 DGT576   0.0000
    41 H10         13.0128     5.7699   -10.5955 H            1 DGT576   0.0000
    42 H11         13.7363     5.1696    -7.2060 H            1 DGT576   0.0000
    43 H12         13.2378     4.4563    -8.7035 H            1 DGT576   0.0000
@<TRIPOS>BOND
     1    1    2      ar
     2    1    3      ar
     3    1    4      ar
     4    1    5       1
     5    5    6       1
     6    6    7      ar
     7    6    8      ar
     8    6    9       1
     9    9   10       1
    10   10   11      ar
    11   10   12      ar
    12   10   13       1
    13   13   14       1
    14   14   15       1
    15   15   16       1
    16   15   17       1
    17   16   20       1
    18   17   18       1
    19   17   19       1
    20   19   20       1
    21   20   21       1
    22   21   22       1
    23   21   31       1
    24   22   23       2
    25   23   24       1
    26   24   25       1
    27   24   31       2
    28   25   26       2
    29   25   27       1
    30   27   28       1
    31   28   29       1
    32   28   30       2
    33   30   31       1
    34   29   43       1
    35   29   42       1
    36   27   41       1
    37   22   40       1
    38   14   32       1
    39   14   33       1
    40   15   34       1
    41   17   35       1
    42   18   36       1
    43   19   37       1
    44   19   38       1
    45   20   39       1
@<TRIPOS>SUBSTRUCTURE
     1 DGT576      1 GROUP             4 A     DGT     0 **** DGT A 576
