@<TRIPOS>MOLECULE
4a4o_664_1_ligand
   63    67     1     0     0
SMALL
NO_CHARGES


@<TRIPOS>ATOM
     1 N1          10.6770    42.6400     8.1170 N.ar         1 6641332   0.0000
     2 C2          10.8770    44.0220     8.3330 C.ar         1 6641332   0.0000
     3 C6          10.0820    41.9210     9.0040 C.ar         1 6641332   0.0000
     4 N3          10.4630    44.5850     9.4260 N.ar         1 6641332   0.0000
     5 N7          11.5380    44.7730     7.3180 N.pl3        1 6641332   0.0000
     6 C4           9.8000    43.8630    10.4470 C.ar         1 6641332   0.0000
     7 C5           9.6000    42.5410    10.2550 C.ar         1 6641332   0.0000
     8 C26          9.3260    44.5630    11.6970 C.2          1 6641332   0.0000
     9 C8          11.8620    46.1710     7.3880 C.ar         1 6641332   0.0000
    10 C10         13.4550    48.0540     7.0520 C.ar         1 6641332   0.0000
    11 C9          13.1030    46.5870     6.9840 C.ar         1 6641332   0.0000
    12 C11         12.5550    48.9470     7.5030 C.ar         1 6641332   0.0000
    13 C13         10.8810    47.1720     7.8840 C.ar         1 6641332   0.0000
    14 C12         11.1980    48.4970     7.9410 C.ar         1 6641332   0.0000
    15 O14         14.0210    45.5940     6.5010 O.3          1 6641332   0.0000
    16 N15         10.2500    49.4520     8.4050 N.pl3        1 6641332   0.0000
    17 C16          8.7950    49.1770     8.2200 C.3          1 6641332   0.0000
    18 C17          7.9090    49.9670     9.2000 C.3          1 6641332   0.0000
    19 N18          8.4090    51.3520     9.3020 N.4          1 6641332   1.0000
    20 C19          9.7140    51.3240     9.9620 C.3          1 6641332   0.0000
    21 C20         10.7470    50.6960     9.0260 C.3          1 6641332   0.0000
    22 C21          7.4900    52.1480    10.1110 C.3          1 6641332   0.0000
    23 C22         14.3900    45.6570     5.0820 C.3          1 6641332   0.0000
    24 F23         15.3110    46.6730     4.8560 F            1 6641332   0.0000
    25 F24         13.2590    45.8580     4.2880 F            1 6641332   0.0000
    26 F25         14.9710    44.4510     4.7260 F            1 6641332   0.0000
    27 N27          9.7520    45.8590    12.1770 N.pl3        1 6641332   0.0000
    28 C28          8.4020    44.0700    12.5580 C.2          1 6641332   0.0000
    29 C29          8.2460    45.0960    13.6040 C.2          1 6641332   0.0000
    30 C30          9.0500    46.1270    13.3500 C.2          1 6641332   0.0000
    31 C31          9.1450    47.3680    14.2190 C.3          1 6641332   0.0000
    32 C32          8.0320    47.3960    15.3420 C.3          1 6641332   0.0000
    33 N33          7.4530    46.0730    15.6860 N.am         1 6641332   0.0000
    34 C34          7.3580    45.0780    14.7740 C.2          1 6641332   0.0000
    35 O35          6.5320    44.1890    14.9290 O.2          1 6641332   0.0000
    36 C36         10.7230    46.7590    11.5760 C.3          1 6641332   0.0000
    37 H1           9.9462    40.9429     8.8460 H            1 6641332   0.0000
    38 H2          11.7988    44.2848     6.4852 H            1 6641332   0.0000
    39 H3           9.1335    41.9914    10.9480 H            1 6641332   0.0000
    40 H4          14.3604    48.3630     6.7608 H            1 6641332   0.0000
    41 H5          12.7950    49.9168     7.5455 H            1 6641332   0.0000
    42 H6           9.9752    46.8691     8.1802 H            1 6641332   0.0000
    43 H7           8.6342    48.2000     8.3604 H            1 6641332   0.0000
    44 H8           8.5390    49.4261     7.2860 H            1 6641332   0.0000
    45 H9           7.9389    49.5339    10.1008 H            1 6641332   0.0000
    46 H10          6.9666    49.9759     8.8655 H            1 6641332   0.0000
    47 H11          9.6516    50.7826    10.8005 H            1 6641332   0.0000
    48 H12          9.9931    52.2573    10.1879 H            1 6641332   0.0000
    49 H13         10.9679    51.3511     8.3035 H            1 6641332   0.0000
    50 H14         11.5725    50.4872     9.5504 H            1 6641332   0.0000
    51 H15          7.8315    53.0855    10.1782 H            1 6641332   0.0000
    52 H16          6.5866    52.1522     9.6823 H            1 6641332   0.0000
    53 H17          7.4227    51.7514    11.0265 H            1 6641332   0.0000
    54 H18          7.9257    43.1929    12.4961 H            1 6641332   0.0000
    55 H19          9.0385    48.1760    13.6396 H            1 6641332   0.0000
    56 H20         10.0443    47.3873    14.6560 H            1 6641332   0.0000
    57 H21          7.2893    47.9872    15.0277 H            1 6641332   0.0000
    58 H22          8.4373    47.7820    16.1707 H            1 6641332   0.0000
    59 H23          7.1244    45.9129    16.6168 H            1 6641332   0.0000
    60 H24         10.8075    47.5817    12.1381 H            1 6641332   0.0000
    61 H25         11.6105    46.3018    11.5188 H            1 6641332   0.0000
    62 H26         10.4188    47.0124    10.6577 H            1 6641332   0.0000
    63 H27          8.4958    51.7522     8.3897 H            1 6641332   0.0000
@<TRIPOS>BOND
     1    1    2      ar
     2    1    3      ar
     3    2    4      ar
     4    2    5       1
     5    3    7      ar
     6    4    6      ar
     7    5    9       1
     8    6    7      ar
     9    6    8       1
    10    8   27       1
    11    8   28       2
    12    9   11      ar
    13    9   13      ar
    14   10   11      ar
    15   10   12      ar
    16   11   15       1
    17   12   14      ar
    18   13   14      ar
    19   14   16       1
    20   15   23       1
    21   16   17       1
    22   16   21       1
    23   17   18       1
    24   18   19       1
    25   19   20       1
    26   19   22       1
    27   20   21       1
    28   23   24       1
    29   23   25       1
    30   23   26       1
    31   27   30       1
    32   27   36       1
    33   28   29       1
    34   29   30       2
    35   29   34       1
    36   30   31       1
    37   31   32       1
    38   32   33       1
    39   33   34      am
    40   34   35       2
    41    3   37       1
    42    5   38       1
    43    7   39       1
    44   10   40       1
    45   12   41       1
    46   13   42       1
    47   17   43       1
    48   17   44       1
    49   18   45       1
    50   18   46       1
    51   20   47       1
    52   20   48       1
    53   21   49       1
    54   21   50       1
    55   22   51       1
    56   22   52       1
    57   22   53       1
    58   28   54       1
    59   31   55       1
    60   31   56       1
    61   32   57       1
    62   32   58       1
    63   33   59       1
    64   36   60       1
    65   36   61       1
    66   36   62       1
    67   19   63       1
@<TRIPOS>SUBSTRUCTURE
     1 6641332     1 GROUP             4 A     664     0 **** 664 A1332
