@<TRIPOS>MOLECULE
4b9q_ATP_2_ligand
   43    45     1     0     0
SMALL
NO_CHARGES


@<TRIPOS>ATOM
     1 PG          76.4670    86.7090   -14.2650 P.3          1 ATP700   0.0000
     2 O1G         76.1530    88.1370   -13.8770 O.co2        1 ATP700   0.0000
     3 O2G         77.9520    86.5170   -14.5680 O.co2        1 ATP700  -1.0000
     4 O3G         75.5740    86.1170   -15.3440 O.co2        1 ATP700  -1.0000
     5 PB          76.9280    85.4200   -11.7050 P.3          1 ATP700   0.0000
     6 O1B         78.3510    85.8170   -11.9680 O.co2        1 ATP700   0.0000
     7 O2B         76.1880    85.8180   -10.4400 O.co2        1 ATP700  -1.0000
     8 O3B         76.0130    85.8430   -12.9770 O.3          1 ATP700   0.0000
     9 PA          77.5890    82.6730   -11.1250 P.3          1 ATP700   0.0000
    10 O1A         78.8520    82.4030   -11.8860 O.co2        1 ATP700   0.0000
    11 O2A         77.6360    82.9890    -9.6520 O.co2        1 ATP700  -1.0000
    12 O3A         76.7750    83.8260   -11.8920 O.3          1 ATP700   0.0000
    13 O5'         76.5300    81.4940   -11.3730 O.3          1 ATP700   0.0000
    14 C5'         75.2870    81.3490   -10.6870 C.3          1 ATP700   0.0000
    15 C4'         74.4630    80.4460   -11.5780 C.3          1 ATP700   0.0000
    16 O4'         75.1240    79.1880   -11.6610 O.3          1 ATP700   0.0000
    17 C3'         73.0600    80.1910   -11.0570 C.3          1 ATP700   0.0000
    18 O3'         72.1860    80.0580   -12.2030 O.3          1 ATP700   0.0000
    19 C2'         73.1890    78.8410   -10.3910 C.3          1 ATP700   0.0000
    20 O2'         71.9350    78.1640   -10.3180 O.3          1 ATP700   0.0000
    21 C1'         74.1810    78.1670   -11.3040 C.3          1 ATP700   0.0000
    22 N9          74.8670    77.0580   -10.6350 N.pl3        1 ATP700   0.0000
    23 C8          75.4400    77.0640    -9.4200 C.2          1 ATP700   0.0000
    24 N7          75.9700    75.8510    -9.1330 N.2          1 ATP700   0.0000
    25 C5          75.7290    75.0420   -10.1820 C.ar         1 ATP700   0.0000
    26 C6          76.0100    73.6300   -10.5400 C.ar         1 ATP700   0.0000
    27 N6          76.6770    72.7820    -9.6990 N.pl3        1 ATP700   0.0000
    28 N1          75.5630    73.2210   -11.7540 N.ar         1 ATP700   0.0000
    29 C2          74.9000    74.0290   -12.6010 C.ar         1 ATP700   0.0000
    30 N3          74.6190    75.3130   -12.3560 N.ar         1 ATP700   0.0000
    31 C4          74.9950    75.8530   -11.1730 C.ar         1 ATP700   0.0000
    32 H5'1        74.8404    82.2366   -10.5741 H            1 ATP700   0.0000
    33 H5'2        75.4256    80.9290    -9.7901 H            1 ATP700   0.0000
    34 H4'         74.4063    80.8485   -12.4917 H            1 ATP700   0.0000
    35 H3'         72.7532    80.9013   -10.4235 H            1 ATP700   0.0000
    36 H5          71.2680    80.3715   -11.9602 H            1 ATP700   0.0000
    37 H2'         73.5784    78.9443    -9.4757 H            1 ATP700   0.0000
    38 H7          71.4761    78.4037    -9.4624 H            1 ATP700   0.0000
    39 H1'         73.7155    77.8332   -12.1237 H            1 ATP700   0.0000
    40 H9          75.4710    77.8561    -8.8104 H            1 ATP700   0.0000
    41 H10         76.8481    71.8362    -9.9751 H            1 ATP700   0.0000
    42 H11         76.9935    73.1079    -8.8081 H            1 ATP700   0.0000
    43 H12         74.5970    73.6433   -13.4725 H            1 ATP700   0.0000
@<TRIPOS>BOND
     1    1    2      ar
     2    1    3      ar
     3    1    4      ar
     4    1    8       1
     5    5    6      ar
     6    5    7      ar
     7    5    8       1
     8    5   12       1
     9    9   10      ar
    10    9   11      ar
    11    9   12       1
    12    9   13       1
    13   13   14       1
    14   14   15       1
    15   15   16       1
    16   15   17       1
    17   16   21       1
    18   17   18       1
    19   17   19       1
    20   19   20       1
    21   19   21       1
    22   21   22       1
    23   22   23       1
    24   22   31       1
    25   23   24       2
    26   24   25       1
    27   25   26      ar
    28   25   31      ar
    29   26   27       1
    30   26   28      ar
    31   28   29      ar
    32   29   30      ar
    33   30   31      ar
    34   29   43       1
    35   27   42       1
    36   27   41       1
    37   23   40       1
    38   14   32       1
    39   14   33       1
    40   15   34       1
    41   17   35       1
    42   18   36       1
    43   19   37       1
    44   20   38       1
    45   21   39       1
@<TRIPOS>SUBSTRUCTURE
     1 ATP700      1 GROUP             4 B     ATP     0 **** ATP B 700
