@<TRIPOS>MOLECULE
1ig0_VIB_1_ligand
   35    36     1     0     0
SMALL
NO_CHARGES


@<TRIPOS>ATOM
     1 CM2         46.3440    32.9250    17.0050 C.3          1 VIB702   0.0000
     2 N4A         49.1490    30.3080    20.1410 N.pl3        1 VIB702   0.0000
     3 CM4         49.2850    31.2900    25.1440 C.3          1 VIB702   0.0000
     4 O1          45.5870    28.9070    26.8720 O.3          1 VIB702   0.0000
     5 C7          46.8670    29.2240    27.4290 C.3          1 VIB702   0.0000
     6 C6          47.9830    28.8140    26.4330 C.3          1 VIB702   0.0000
     7 C2          46.8790    29.8960    22.8500 C.2          1 VIB702   0.0000
     8 S1          46.4310    28.5750    23.9740 S.3          1 VIB702   0.0000
     9 C5          47.6580    29.3540    25.0430 C.2          1 VIB702   0.0000
    10 C4          48.2180    30.4480    24.4600 C.2          1 VIB702   0.0000
    11 N3          47.7620    30.6860    23.2790 N.2          1 VIB702   1.0000
    12 C7A         48.2170    31.8260    22.4340 C.3          1 VIB702   0.0000
    13 C4A         48.2160    31.3440    19.9340 C.ar         1 VIB702   0.0000
    14 N3A         47.7610    31.6140    18.6250 N.ar         1 VIB702   0.0000
    15 C2A         46.8300    32.6400    18.3980 C.ar         1 VIB702   0.0000
    16 N1A         46.3580    33.4010    19.4830 N.ar         1 VIB702   0.0000
    17 C6A         46.8100    33.1350    20.7910 C.ar         1 VIB702   0.0000
    18 C5A         47.7420    32.1080    21.0250 C.ar         1 VIB702   0.0000
    19 HM21        45.6903    33.6814    17.0283 H            1 VIB702   0.0000
    20 HM22        47.1202    33.1730    16.4254 H            1 VIB702   0.0000
    21 HM23        45.8981    32.1103    16.6343 H            1 VIB702   0.0000
    22 H4A1        49.4779    30.1083    21.0640 H            1 VIB702   0.0000
    23 H4A2        49.4821    29.7726    19.3648 H            1 VIB702   0.0000
    24 HM41        49.5549    32.0404    24.5407 H            1 VIB702   0.0000
    25 HM42        48.9194    31.6629    25.9968 H            1 VIB702   0.0000
    26 HM43        50.0819    30.7200    25.3440 H            1 VIB702   0.0000
    27 H9          45.7092    28.4944    25.9693 H            1 VIB702   0.0000
    28 H10         46.9885    28.7270    28.2882 H            1 VIB702   0.0000
    29 H11         46.9203    30.2074    27.6024 H            1 VIB702   0.0000
    30 H12         48.0449    27.8166    26.3957 H            1 VIB702   0.0000
    31 H13         48.8569    29.1910    26.7398 H            1 VIB702   0.0000
    32 H14         46.4591    29.9989    21.9483 H            1 VIB702   0.0000
    33 H7A1        49.2097    31.7271    22.3655 H            1 VIB702   0.0000
    34 H7A2        47.9994    32.6494    22.9581 H            1 VIB702   0.0000
    35 H6A         46.4664    33.6791    21.5565 H            1 VIB702   0.0000
@<TRIPOS>BOND
     1    1   15       1
     2    2   13       1
     3    3   10       1
     4    4    5       1
     5    5    6       1
     6    6    9       1
     7    7    8       1
     8    7   11       2
     9    8    9       1
    10    9   10       2
    11   10   11       1
    12   11   12       1
    13   12   18       1
    14   13   14      ar
    15   13   18      ar
    16   14   15      ar
    17   15   16      ar
    18   16   17      ar
    19   17   18      ar
    20    1   19       1
    21    1   20       1
    22    1   21       1
    23    2   22       1
    24    2   23       1
    25    3   24       1
    26    3   25       1
    27    3   26       1
    28    4   27       1
    29    5   28       1
    30    5   29       1
    31    6   30       1
    32    6   31       1
    33    7   32       1
    34   12   33       1
    35   12   34       1
    36   17   35       1
@<TRIPOS>SUBSTRUCTURE
     1 VIB702      1 GROUP             4 A     VIB     0 **** VIB A 702
