@<TRIPOS>MOLECULE
1ny5_ADP_2_ligand
   39    41     1     0     0
SMALL
NO_CHARGES


@<TRIPOS>ATOM
     1 PB         -36.7360   -20.1960     1.6260 P.3          1 ADP602   0.0000
     2 O1B        -36.2640   -19.7190     2.9520 O.co2        1 ADP602   0.0000
     3 O2B        -37.4470   -21.6150     1.7640 O.co2        1 ADP602  -1.0000
     4 O3B        -37.6650   -19.2120     1.0020 O.co2        1 ADP602  -1.0000
     5 PA         -35.1390   -21.5800    -0.3260 P.3          1 ADP602   0.0000
     6 O1A        -34.5260   -22.7120     0.3790 O.co2        1 ADP602   0.0000
     7 O2A        -36.3360   -22.0370    -1.0390 O.co2        1 ADP602  -1.0000
     8 O3A        -35.5050   -20.4330     0.6810 O.3          1 ADP602   0.0000
     9 O5'        -34.2080   -21.0090    -1.4430 O.3          1 ADP602   0.0000
    10 C5'        -33.6770   -19.7080    -1.6850 C.3          1 ADP602   0.0000
    11 C4'        -32.8680   -19.9130    -3.0220 C.3          1 ADP602   0.0000
    12 O4'        -31.5120   -19.9320    -2.6300 O.3          1 ADP602   0.0000
    13 C3'        -33.1160   -21.2780    -3.7340 C.3          1 ADP602   0.0000
    14 O3'        -33.2160   -21.1610    -5.1690 O.3          1 ADP602   0.0000
    15 C2'        -31.9710   -22.1840    -3.3080 C.3          1 ADP602   0.0000
    16 O2'        -31.6420   -23.2090    -4.2620 O.3          1 ADP602   0.0000
    17 C1'        -30.8650   -21.1860    -2.9890 C.3          1 ADP602   0.0000
    18 N9         -30.0240   -21.5870    -1.8060 N.pl3        1 ADP602   0.0000
    19 C8         -30.3620   -21.3820    -0.5020 C.2          1 ADP602   0.0000
    20 N7         -29.4080   -21.8470     0.2800 N.2          1 ADP602   0.0000
    21 C5         -28.4660   -22.3580    -0.4750 C.ar         1 ADP602   0.0000
    22 C6         -27.2270   -22.9740    -0.2560 C.ar         1 ADP602   0.0000
    23 N6         -26.7930   -23.1620     0.9900 N.pl3        1 ADP602   0.0000
    24 N1         -26.4600   -23.4040    -1.3170 N.ar         1 ADP602   0.0000
    25 C2         -26.8560   -23.2360    -2.6160 C.ar         1 ADP602   0.0000
    26 N3         -28.0510   -22.6310    -2.8510 N.ar         1 ADP602   0.0000
    27 C4         -28.8660   -22.1820    -1.8320 C.ar         1 ADP602   0.0000
    28 H5'1       -33.0762   -19.4185    -0.9398 H            1 ADP602   0.0000
    29 H5'2       -34.4078   -19.0359    -1.8042 H            1 ADP602   0.0000
    30 H4'        -33.0381   -19.1553    -3.6520 H            1 ADP602   0.0000
    31 H3'        -33.9708   -21.6646    -3.3878 H            1 ADP602   0.0000
    32 H5         -33.5875   -20.2631    -5.4051 H            1 ADP602   0.0000
    33 H2'        -32.2356   -22.6325    -2.4543 H            1 ADP602   0.0000
    34 H7         -30.6925   -23.0986    -4.5558 H            1 ADP602   0.0000
    35 H1'        -30.2836   -21.0526    -3.7916 H            1 ADP602   0.0000
    36 H9         -31.2047   -20.9457    -0.1865 H            1 ADP602   0.0000
    37 H10        -25.9092   -23.6013     1.1507 H            1 ADP602   0.0000
    38 H11        -27.3512   -22.8637     1.7642 H            1 ADP602   0.0000
    39 H12        -26.2820   -23.5498    -3.3723 H            1 ADP602   0.0000
@<TRIPOS>BOND
     1    1    2      ar
     2    1    3      ar
     3    1    4      ar
     4    1    8       1
     5    5    6      ar
     6    5    7      ar
     7    5    8       1
     8    5    9       1
     9    9   10       1
    10   10   11       1
    11   11   12       1
    12   11   13       1
    13   12   17       1
    14   13   14       1
    15   13   15       1
    16   15   16       1
    17   15   17       1
    18   17   18       1
    19   18   19       1
    20   18   27       1
    21   19   20       2
    22   20   21       1
    23   21   22      ar
    24   21   27      ar
    25   22   23       1
    26   22   24      ar
    27   24   25      ar
    28   25   26      ar
    29   26   27      ar
    30   25   39       1
    31   23   38       1
    32   23   37       1
    33   10   28       1
    34   10   29       1
    35   11   30       1
    36   13   31       1
    37   14   32       1
    38   15   33       1
    39   16   34       1
    40   17   35       1
    41   19   36       1
@<TRIPOS>SUBSTRUCTURE
     1 ADP602      1 GROUP             4 B     ADP     0 **** ADP B 602
