@<TRIPOS>MOLECULE
4jxr_ACO_1_ligand
   85    87     1     0     0
SMALL
NO_CHARGES


@<TRIPOS>ATOM
     1 N1A         84.4430   -21.4470    61.9650 N.ar         1 ACO202   0.0000
     2 C2A         83.7680   -20.7520    61.0380 C.ar         1 ACO202   0.0000
     3 N3A         82.9090   -21.3390    60.1830 N.ar         1 ACO202   0.0000
     4 C4A         82.6570   -22.6690    60.2640 C.ar         1 ACO202   0.0000
     5 C5A         83.3580   -23.4920    61.2670 C.ar         1 ACO202   0.0000
     6 C6A         84.3070   -22.7770    62.1530 C.ar         1 ACO202   0.0000
     7 N6A         85.0110   -23.4140    63.1210 N.pl3        1 ACO202   0.0000
     8 N7A         82.9260   -24.7680    61.1000 N.2          1 ACO202   0.0000
     9 C8A         82.0270   -24.7520    60.0950 C.2          1 ACO202   0.0000
    10 N9A         81.8690   -23.5120    59.5950 N.pl3        1 ACO202   0.0000
    11 C1B         80.9300   -23.1390    58.4970 C.3          1 ACO202   0.0000
    12 C2B         81.2010   -23.9410    57.2460 C.3          1 ACO202   0.0000
    13 O2B         82.3690   -23.4940    56.4980 O.3          1 ACO202   0.0000
    14 C3B         79.8680   -23.8080    56.5110 C.3          1 ACO202   0.0000
    15 O3B         79.6850   -22.5240    55.9280 O.3          1 ACO202   0.0000
    16 P3B         79.9950   -22.2820    54.3860 P.3          1 ACO202   0.0000
    17 O7A         79.0920   -23.1680    53.5920 O.co2        1 ACO202   0.0000
    18 O8A         81.4220   -22.7720    54.1280 O.co2        1 ACO202  -1.0000
    19 O9A         79.8430   -20.7990    54.1180 O.co2        1 ACO202  -1.0000
    20 C4B         78.8490   -23.9820    57.6160 C.3          1 ACO202   0.0000
    21 O4B         79.5410   -23.4780    58.7870 O.3          1 ACO202   0.0000
    22 C5B         78.4250   -25.4600    57.7250 C.3          1 ACO202   0.0000
    23 O5B         77.3940   -25.5370    58.6620 O.3          1 ACO202   0.0000
    24 P1A         76.7660   -26.8240    59.3740 P.3          1 ACO202   0.0000
    25 O1A         77.9840   -27.3450    59.9910 O.co2        1 ACO202   0.0000
    26 O2A         75.9850   -27.6660    58.4720 O.co2        1 ACO202  -1.0000
    27 O3A         75.6000   -26.2910    60.3980 O.3          1 ACO202   0.0000
    28 P2A         75.7570   -25.1370    61.5030 P.3          1 ACO202   0.0000
    29 O4A         77.0280   -24.4720    61.2280 O.co2        1 ACO202   0.0000
    30 O5A         75.5000   -25.7980    62.8310 O.co2        1 ACO202  -1.0000
    31 O6A         74.4650   -24.2290    61.2380 O.3          1 ACO202   0.0000
    32 CBP         74.2100   -22.0560    60.1260 C.3          1 ACO202   0.0000
    33 CCP         74.3000   -23.5670    59.9740 C.3          1 ACO202   0.0000
    34 CDP         72.9510   -21.7610    60.9550 C.3          1 ACO202   0.0000
    35 CEP         74.0180   -21.4830    58.7370 C.3          1 ACO202   0.0000
    36 CAP         75.4830   -21.5670    60.8310 C.3          1 ACO202   0.0000
    37 OAP         76.6610   -21.9600    60.1040 O.3          1 ACO202   0.0000
    38 C9P         75.4890   -20.0880    61.0470 C.2          1 ACO202   0.0000
    39 O9P         74.9870   -19.5840    62.0770 O.2          1 ACO202   0.0000
    40 N8P         76.0040   -19.3150    60.0970 N.am         1 ACO202   0.0000
    41 C7P         76.0270   -17.8690    60.1730 C.3          1 ACO202   0.0000
    42 C6P         74.6710   -17.1970    60.3390 C.3          1 ACO202   0.0000
    43 C5P         73.7370   -17.5460    59.2270 C.2          1 ACO202   0.0000
    44 O5P         74.1450   -17.7630    58.0700 O.2          1 ACO202   0.0000
    45 N4P         72.4430   -17.6150    59.5960 N.am         1 ACO202   0.0000
    46 C3P         71.3280   -17.8320    58.6590 C.3          1 ACO202   0.0000
    47 C2P         70.7690   -19.2240    58.7500 C.3          1 ACO202   0.0000
    48 S1P         69.3890   -19.4880    57.6950 S.3          1 ACO202   0.0000
    49 C           68.0960   -18.8080    58.5820 C.2          1 ACO202   0.0000
    50 O           68.2430   -18.3070    59.7000 O.2          1 ACO202   0.0000
    51 CH3         66.7100   -18.8130    57.9480 C.3          1 ACO202   0.0000
    52 H2A         83.9073   -19.7635    60.9795 H            1 ACO202   0.0000
    53 H6A1        84.9026   -24.3995    63.2516 H            1 ACO202   0.0000
    54 H6A2        85.6386   -22.8983    63.7043 H            1 ACO202   0.0000
    55 H8A         81.5392   -25.5594    59.7630 H            1 ACO202   0.0000
    56 H1B         81.0081   -22.1619    58.2990 H            1 ACO202   0.0000
    57 H2B         81.3317   -24.8989    57.5016 H            1 ACO202   0.0000
    58 H7          82.0904   -23.2191    55.5778 H            1 ACO202   0.0000
    59 H3B         79.7700   -24.5267    55.8226 H            1 ACO202   0.0000
    60 H4B         78.0475   -23.4144    57.4278 H            1 ACO202   0.0000
    61 H5B1        79.2004   -26.0156    58.0252 H            1 ACO202   0.0000
    62 H5B2        78.1035   -25.7886    56.8369 H            1 ACO202   0.0000
    63 HCP1        73.4602   -23.8983    59.5438 H            1 ACO202   0.0000
    64 HCP2        75.0822   -23.7863    59.3908 H            1 ACO202   0.0000
    65 HDP1        72.8564   -20.7730    61.0774 H            1 ACO202   0.0000
    66 HDP2        72.1471   -22.1163    60.4781 H            1 ACO202   0.0000
    67 HDP3        73.0299   -22.2016    61.8492 H            1 ACO202   0.0000
    68 HEP1        73.9539   -20.4867    58.7934 H            1 ACO202   0.0000
    69 HEP2        74.7964   -21.7349    58.1620 H            1 ACO202   0.0000
    70 HEP3        73.1770   -21.8492    58.3387 H            1 ACO202   0.0000
    71 HAP         75.5201   -22.0052    61.7291 H            1 ACO202   0.0000
    72 H21         76.9698   -22.8543    60.4279 H            1 ACO202   0.0000
    73 H8P         76.3957   -19.7540    59.2884 H            1 ACO202   0.0000
    74 H7P1        76.4406   -17.5233    59.3307 H            1 ACO202   0.0000
    75 H7P2        76.5958   -17.6110    60.9540 H            1 ACO202   0.0000
    76 H6P1        74.8010   -16.2056    60.3530 H            1 ACO202   0.0000
    77 H6P2        74.2675   -17.4925    61.2049 H            1 ACO202   0.0000
    78 H4P         72.2263   -17.5124    60.5668 H            1 ACO202   0.0000
    79 H3P1        71.6564   -17.6776    57.7272 H            1 ACO202   0.0000
    80 H3P2        70.6003   -17.1789    58.8684 H            1 ACO202   0.0000
    81 H2P1        70.4836   -19.3905    59.6938 H            1 ACO202   0.0000
    82 H2P2        71.4884   -19.8721    58.5000 H            1 ACO202   0.0000
    83 HH31        66.0559   -18.3873    58.5732 H            1 ACO202   0.0000
    84 HH32        66.7340   -18.2995    57.0903 H            1 ACO202   0.0000
    85 HH33        66.4308   -19.7555    57.7645 H            1 ACO202   0.0000
@<TRIPOS>BOND
     1    1    2      ar
     2    1    6      ar
     3    2    3      ar
     4    3    4      ar
     5    4    5      ar
     6    4   10       1
     7    5    6      ar
     8    5    8       1
     9    6    7       1
    10    8    9       2
    11    9   10       1
    12   10   11       1
    13   11   12       1
    14   11   21       1
    15   12   13       1
    16   12   14       1
    17   14   15       1
    18   14   20       1
    19   15   16       1
    20   16   17      ar
    21   16   18      ar
    22   16   19      ar
    23   20   21       1
    24   20   22       1
    25   22   23       1
    26   23   24       1
    27   24   25      ar
    28   24   26      ar
    29   24   27       1
    30   27   28       1
    31   28   29      ar
    32   28   30      ar
    33   28   31       1
    34   31   33       1
    35   32   33       1
    36   32   34       1
    37   32   35       1
    38   32   36       1
    39   36   37       1
    40   36   38       1
    41   38   39       2
    42   38   40      am
    43   40   41       1
    44   41   42       1
    45   42   43       1
    46   43   44       2
    47   43   45      am
    48   45   46       1
    49   46   47       1
    50   47   48       1
    51   48   49       1
    52   49   50       2
    53   49   51       1
    54    2   52       1
    55    7   53       1
    56    7   54       1
    57    9   55       1
    58   11   56       1
    59   12   57       1
    60   13   58       1
    61   14   59       1
    62   51   85       1
    63   51   84       1
    64   20   60       1
    65   22   61       1
    66   22   62       1
    67   51   83       1
    68   47   82       1
    69   33   63       1
    70   33   64       1
    71   34   65       1
    72   34   66       1
    73   34   67       1
    74   35   68       1
    75   35   69       1
    76   35   70       1
    77   36   71       1
    78   37   72       1
    79   40   73       1
    80   41   74       1
    81   41   75       1
    82   42   76       1
    83   42   77       1
    84   45   78       1
    85   46   79       1
    86   46   80       1
    87   47   81       1
@<TRIPOS>SUBSTRUCTURE
     1 ACO202      1 GROUP             4 B     ACO     0 **** ACO B 202
