@<TRIPOS>MOLECULE
4dja_DLZ_1_ligand
   41    42     1     0     0
SMALL
NO_CHARGES


@<TRIPOS>ATOM
     1 C7          15.9390     9.9710    63.6410 C.3          1 DLZ602   0.0000
     2 C7A         15.4970    10.4750    65.0070 C.2          1 DLZ602   0.0000
     3 C5A         16.2890    10.1790    66.1150 C.2          1 DLZ602   0.0000
     4 C6          17.5870     9.4250    65.9280 C.3          1 DLZ602   0.0000
     5 N5          15.9440    10.5810    67.3550 N.2          1 DLZ602   0.0000
     6 C4A         14.7880    11.2440    67.5400 C.2          1 DLZ602   0.0000
     7 C4          14.3870    11.6610    68.8040 C.2          1 DLZ602   0.0000
     8 O4          15.0970    11.3230    69.8790 O.2          1 DLZ602   0.0000
     9 N3          13.2290    12.3360    68.9510 N.pl3        1 DLZ602   0.0000
    10 C2          12.5100    12.6600    67.8510 C.2          1 DLZ602   0.0000
    11 O2          11.4140    13.3860    67.9870 O.2          1 DLZ602   0.0000
    12 N1          12.8390    12.2670    66.6100 N.2          1 DLZ602   0.0000
    13 C8          13.9960    11.5890    66.4520 C.2          1 DLZ602   0.0000
    14 N8          14.3450    11.1610    65.1710 N.pl3        1 DLZ602   0.0000
    15 C1'         13.4030    11.4350    64.0760 C.3          1 DLZ602   0.0000
    16 C2'         12.3750    10.2390    64.2140 C.3          1 DLZ602   0.0000
    17 O2'         12.9420     8.9670    64.6410 O.3          1 DLZ602   0.0000
    18 C3'         11.5450     9.8730    62.9840 C.3          1 DLZ602   0.0000
    19 O3'         12.4320     9.3650    61.9720 O.3          1 DLZ602   0.0000
    20 C4'         10.7570    11.0620    62.4470 C.3          1 DLZ602   0.0000
    21 O4'          9.9020    11.5710    63.4820 O.3          1 DLZ602   0.0000
    22 C5'          9.9160    10.5970    61.2590 C.3          1 DLZ602   0.0000
    23 O5'          8.9670    11.5890    60.8510 O.3          1 DLZ602   0.0000
    24 H1          15.2766    10.2587    62.9492 H            1 DLZ602   0.0000
    25 H2          16.8375    10.3505    63.4204 H            1 DLZ602   0.0000
    26 H3          15.9934     8.9726    63.6557 H            1 DLZ602   0.0000
    27 H4          18.0286     9.2962    66.8159 H            1 DLZ602   0.0000
    28 H5          17.3982     8.5331    65.5172 H            1 DLZ602   0.0000
    29 H6          18.1923     9.9473    65.3273 H            1 DLZ602   0.0000
    30 H7          12.9055    12.5940    69.8614 H            1 DLZ602   0.0000
    31 H1'1        13.8633    11.4171    63.1884 H            1 DLZ602   0.0000
    32 H1'2        12.9506    12.3183    64.1991 H            1 DLZ602   0.0000
    33 H2'         11.7234    10.5086    64.9230 H            1 DLZ602   0.0000
    34 H11         12.2553     8.4511    65.1531 H            1 DLZ602   0.0000
    35 H3'         10.9011     9.1507    63.2364 H            1 DLZ602   0.0000
    36 H13         12.9046     8.5549    62.3191 H            1 DLZ602   0.0000
    37 H4'         11.3893    11.7780    62.1512 H            1 DLZ602   0.0000
    38 H15          9.3836    12.3514    63.1324 H            1 DLZ602   0.0000
    39 H5'1         9.4232     9.7663    61.5180 H            1 DLZ602   0.0000
    40 H5'2        10.5247    10.3977    60.4911 H            1 DLZ602   0.0000
    41 H5'          9.4503    12.4226    60.5836 H            1 DLZ602   0.0000
@<TRIPOS>BOND
     1    1    2       1
     2    2    3       2
     3    2   14       1
     4    3    4       1
     5    3    5       1
     6    5    6       2
     7    6    7       1
     8    6   13       1
     9    7    8       2
    10    7    9       1
    11    9   10       1
    12   10   11       2
    13   10   12       1
    14   12   13       2
    15   13   14       1
    16   14   15       1
    17   15   16       1
    18   16   17       1
    19   16   18       1
    20   18   19       1
    21   18   20       1
    22   20   21       1
    23   20   22       1
    24   22   23       1
    25    1   24       1
    26    1   25       1
    27    1   26       1
    28    4   27       1
    29    4   28       1
    30    4   29       1
    31    9   30       1
    32   15   31       1
    33   15   32       1
    34   16   33       1
    35   17   34       1
    36   18   35       1
    37   19   36       1
    38   20   37       1
    39   21   38       1
    40   22   39       1
    41   22   40       1
    42   23   41       1
@<TRIPOS>SUBSTRUCTURE
     1 DLZ602      1 GROUP             4 A     DLZ     0 **** DLZ A 602
