@<TRIPOS>MOLECULE
3uvv_REA_2_ligand
   49    49     1     0     0
SMALL
NO_CHARGES


@<TRIPOS>ATOM
     1 C1         -12.7840   -22.9600   -10.4230 C.3          1 9CR501   0.0000
     2 C2         -11.4790   -22.6950   -11.2120 C.3          1 9CR501   0.0000
     3 C3         -11.2100   -21.1920   -11.4900 C.3          1 9CR501   0.0000
     4 C4         -12.4480   -20.2710   -11.5500 C.3          1 9CR501   0.0000
     5 C5         -13.7640   -20.9770   -11.6330 C.2          1 9CR501   0.0000
     6 C6         -13.9610   -22.2250   -11.1420 C.2          1 9CR501   0.0000
     7 C7         -15.2560   -22.8270   -11.2460 C.2          1 9CR501   0.0000
     8 C8         -15.5190   -24.0690   -11.7160 C.2          1 9CR501   0.0000
     9 C9         -16.8460   -24.5840   -11.7540 C.2          1 9CR501   0.0000
    10 C10        -17.1460   -25.8320   -12.2100 C.2          1 9CR501   0.0000
    11 C11        -16.2240   -26.7530   -12.6440 C.2          1 9CR501   0.0000
    12 C12        -16.7010   -27.9400   -13.0440 C.2          1 9CR501   0.0000
    13 C13        -15.8510   -28.9150   -13.5940 C.2          1 9CR501   0.0000
    14 C14        -16.4190   -30.1410   -13.7640 C.2          1 9CR501   0.0000
    15 C15        -15.8370   -31.4300   -13.9540 C.2          1 9CR501   0.0000
    16 C16        -12.9550   -24.4590   -10.0660 C.3          1 9CR501   0.0000
    17 C17        -12.4690   -22.3680    -9.0590 C.3          1 9CR501   0.0000
    18 C18        -14.8340   -20.1670   -12.3140 C.3          1 9CR501   0.0000
    19 C19        -18.0450   -23.7750   -11.3290 C.3          1 9CR501   0.0000
    20 C20        -14.3460   -28.7110   -13.5930 C.3          1 9CR501   0.0000
    21 O1         -14.6590   -31.6540   -14.1750 O.co2        1 9CR501   0.0000
    22 O2         -16.6750   -32.4700   -13.9300 O.co2        1 9CR501  -1.0000
    23 H1         -11.5381   -23.1722   -12.0888 H            1 9CR501   0.0000
    24 H2         -10.7119   -23.0604   -10.6847 H            1 9CR501   0.0000
    25 H3         -10.7385   -21.1252   -12.3693 H            1 9CR501   0.0000
    26 H4         -10.6123   -20.8509   -10.7645 H            1 9CR501   0.0000
    27 H5         -12.3595   -19.6860   -12.3562 H            1 9CR501   0.0000
    28 H6         -12.4523   -19.7046   -10.7259 H            1 9CR501   0.0000
    29 H7         -16.0370   -22.2804   -10.9440 H            1 9CR501   0.0000
    30 H8         -14.7645   -24.6375   -12.0438 H            1 9CR501   0.0000
    31 H9         -18.1099   -26.0976   -12.2303 H            1 9CR501   0.0000
    32 H10        -15.2454   -26.5481   -12.6607 H            1 9CR501   0.0000
    33 H11        -17.6772   -28.1351   -12.9496 H            1 9CR501   0.0000
    34 H12        -17.4189   -30.1373   -13.7539 H            1 9CR501   0.0000
    35 H13        -13.8074   -24.5857    -9.5587 H            1 9CR501   0.0000
    36 H14        -12.9835   -25.0006   -10.9062 H            1 9CR501   0.0000
    37 H15        -12.1844   -24.7576    -9.5029 H            1 9CR501   0.0000
    38 H16        -13.2573   -22.4847    -8.4549 H            1 9CR501   0.0000
    39 H17        -11.6767   -22.8359    -8.6674 H            1 9CR501   0.0000
    40 H18        -12.2658   -21.3938    -9.1573 H            1 9CR501   0.0000
    41 H19        -15.6850   -20.6916   -12.3375 H            1 9CR501   0.0000
    42 H20        -14.9805   -19.3165   -11.8088 H            1 9CR501   0.0000
    43 H21        -14.5474   -19.9546   -13.2482 H            1 9CR501   0.0000
    44 H22        -18.8731   -24.3254   -11.4353 H            1 9CR501   0.0000
    45 H23        -17.9436   -23.5069   -10.3710 H            1 9CR501   0.0000
    46 H24        -18.1136   -22.9561   -11.8989 H            1 9CR501   0.0000
    47 H25        -13.9026   -29.4986   -14.0208 H            1 9CR501   0.0000
    48 H26        -14.1216   -27.8826   -14.1063 H            1 9CR501   0.0000
    49 H27        -14.0229   -28.6174   -12.6513 H            1 9CR501   0.0000
@<TRIPOS>BOND
     1    1    2       1
     2    1    6       1
     3    1   16       1
     4    1   17       1
     5    2    3       1
     6    3    4       1
     7    4    5       1
     8    5    6       2
     9    5   18       1
    10    6    7       1
    11    7    8       2
    12    8    9       1
    13    9   10       2
    14    9   19       1
    15   10   11       1
    16   11   12       2
    17   12   13       1
    18   13   14       2
    19   13   20       1
    20   14   15       1
    21   15   21      ar
    22   15   22      ar
    23    2   23       1
    24    2   24       1
    25    3   25       1
    26    3   26       1
    27    4   27       1
    28    4   28       1
    29    7   29       1
    30    8   30       1
    31   10   31       1
    32   11   32       1
    33   12   33       1
    34   14   34       1
    35   16   35       1
    36   16   36       1
    37   16   37       1
    38   17   38       1
    39   17   39       1
    40   17   40       1
    41   18   41       1
    42   18   42       1
    43   18   43       1
    44   19   44       1
    45   19   45       1
    46   19   46       1
    47   20   47       1
    48   20   48       1
    49   20   49       1
@<TRIPOS>SUBSTRUCTURE
     1 9CR501      1 GROUP             4 B     9CR     0 **** 9CR B 501
