@<TRIPOS>MOLECULE
3okx_SAM_2_ligand
   50    52     1     0     0
SMALL
NO_CHARGES


@<TRIPOS>ATOM
     1 N           28.8070   -13.9020    23.0350 N.4          1 SAM201   1.0000
     2 CA          27.7980   -12.9400    22.5610 C.3          1 SAM201   0.0000
     3 C           28.1310   -11.5190    23.0220 C.2          1 SAM201   0.0000
     4 O           27.6340   -10.5420    22.4470 O.co2        1 SAM201   0.0000
     5 OXT         28.9320   -11.3490    23.9590 O.co2        1 SAM201  -1.0000
     6 CB          26.3840   -13.3310    22.9620 C.3          1 SAM201   0.0000
     7 CG          26.2740   -13.5680    24.4560 C.3          1 SAM201   0.0000
     8 SD          24.5890   -14.0480    24.8960 S.3          1 SAM201   1.0000
     9 CE          24.8470   -14.1670    26.7020 C.3          1 SAM201   0.0000
    10 C5'         24.6180   -15.8380    24.5030 C.3          1 SAM201   0.0000
    11 C4'         23.2550   -16.4990    24.7660 C.3          1 SAM201   0.0000
    12 O4'         22.3250   -16.1070    23.7820 O.3          1 SAM201   0.0000
    13 C3'         23.2180   -18.0110    24.7070 C.3          1 SAM201   0.0000
    14 O3'         23.6320   -18.6090    25.9130 O.3          1 SAM201   0.0000
    15 C2'         21.7440   -18.2940    24.4660 C.3          1 SAM201   0.0000
    16 O2'         21.0000   -18.2450    25.6730 O.3          1 SAM201   0.0000
    17 C1'         21.2850   -17.0900    23.6720 C.3          1 SAM201   0.0000
    18 N9          21.1630   -17.3280    22.2340 N.pl3        1 SAM201   0.0000
    19 C8          22.0070   -18.0310    21.3950 C.2          1 SAM201   0.0000
    20 N7          21.5320   -17.9370    20.1060 N.2          1 SAM201   0.0000
    21 C5          20.4220   -17.1460    20.1380 C.ar         1 SAM201   0.0000
    22 C6          19.5390   -16.6940    19.1510 C.ar         1 SAM201   0.0000
    23 N6          19.7080   -17.0340    17.8690 N.pl3        1 SAM201   0.0000
    24 N1          18.4790   -15.8950    19.5080 N.ar         1 SAM201   0.0000
    25 C2          18.2800   -15.5250    20.8240 C.ar         1 SAM201   0.0000
    26 N3          19.1440   -15.9670    21.7990 N.ar         1 SAM201   0.0000
    27 C4          20.1880   -16.7670    21.4620 C.ar         1 SAM201   0.0000
    28 H1          28.3782   -14.7952    23.1704 H            1 SAM201   0.0000
    29 H2          29.5364   -13.9819    22.3556 H            1 SAM201   0.0000
    30 HA          27.8334   -12.9426    21.5616 H            1 SAM201   0.0000
    31 HB1         26.1302   -14.1699    22.4806 H            1 SAM201   0.0000
    32 HB2         25.7579   -12.5956    22.7029 H            1 SAM201   0.0000
    33 HG1         26.5144   -12.7274    24.9414 H            1 SAM201   0.0000
    34 HG2         26.9042   -14.2978    24.7210 H            1 SAM201   0.0000
    35 HE1         23.9906   -14.4334    27.1442 H            1 SAM201   0.0000
    36 HE2         25.5488   -14.8530    26.8940 H            1 SAM201   0.0000
    37 HE3         25.1428   -13.2796    27.0557 H            1 SAM201   0.0000
    38 H5'1        25.3096   -16.2836    25.0715 H            1 SAM201   0.0000
    39 H5'2        24.8540   -15.9544    23.5383 H            1 SAM201   0.0000
    40 H4'         22.9209   -16.2033    25.6610 H            1 SAM201   0.0000
    41 H3'         23.7689   -18.3457    23.9425 H            1 SAM201   0.0000
    42 H15         24.6202   -18.7602    25.8881 H            1 SAM201   0.0000
    43 H2'         21.6008   -19.1500    23.9693 H            1 SAM201   0.0000
    44 H17         20.0375   -18.4350    25.4793 H            1 SAM201   0.0000
    45 H1'         20.4267   -16.7339    24.0416 H            1 SAM201   0.0000
    46 H19         22.8281   -18.5267    21.6778 H            1 SAM201   0.0000
    47 H20         19.0683   -16.7028    17.1754 H            1 SAM201   0.0000
    48 H21         20.4741   -17.6194    17.6038 H            1 SAM201   0.0000
    49 H22         17.5089   -14.9367    21.0676 H            1 SAM201   0.0000
    50 H23         29.1916   -13.5822    23.9009 H            1 SAM201   0.0000
@<TRIPOS>BOND
     1    1    2       1
     2    2    3       1
     3    2    6       1
     4    3    4      ar
     5    3    5      ar
     6    6    7       1
     7    7    8       1
     8    8    9       1
     9    8   10       1
    10   10   11       1
    11   11   12       1
    12   11   13       1
    13   12   17       1
    14   13   14       1
    15   13   15       1
    16   15   16       1
    17   15   17       1
    18   17   18       1
    19   18   19       1
    20   18   27       1
    21   19   20       2
    22   20   21       1
    23   21   22      ar
    24   21   27      ar
    25   22   23       1
    26   22   24      ar
    27   24   25      ar
    28   25   26      ar
    29   26   27      ar
    30    1   28       1
    31    1   29       1
    32    2   30       1
    33    1   50       1
    34    6   31       1
    35    6   32       1
    36    7   33       1
    37    7   34       1
    38    9   35       1
    39    9   36       1
    40    9   37       1
    41   10   38       1
    42   10   39       1
    43   11   40       1
    44   13   41       1
    45   14   42       1
    46   15   43       1
    47   16   44       1
    48   17   45       1
    49   19   46       1
    50   23   47       1
    51   23   48       1
    52   25   49       1
@<TRIPOS>SUBSTRUCTURE
     1 SAM201      1 GROUP             4 B     SAM     0 **** SAM B 201
