@<TRIPOS>MOLECULE
1yqz_COA_3_ligand
   80    82     1     0     0
SMALL
NO_CHARGES


@<TRIPOS>ATOM
     1 N1A         -3.5250    16.5810    23.1680 N.ar         1 COA442   0.0000
     2 C2A         -3.0860    17.7950    22.5420 C.ar         1 COA442   0.0000
     3 N3A         -2.2750    18.7510    23.1830 N.ar         1 COA442   0.0000
     4 C4A         -1.9170    18.4470    24.4830 C.ar         1 COA442   0.0000
     5 C5A         -2.2820    17.2540    25.2600 C.ar         1 COA442   0.0000
     6 C6A         -3.1540    16.2600    24.5210 C.ar         1 COA442   0.0000
     7 N6A         -3.5520    15.1590    25.0870 N.pl3        1 COA442   0.0000
     8 N7A         -1.7680    17.2670    26.4990 N.2          1 COA442   0.0000
     9 C8A         -1.0790    18.4140    26.5730 C.2          1 COA442   0.0000
    10 N9A         -1.1250    19.1830    25.3820 N.pl3        1 COA442   0.0000
    11 C1B         -0.5210    20.5970    24.8630 C.3          1 COA442   0.0000
    12 C2B         -1.3430    21.6760    25.4230 C.3          1 COA442   0.0000
    13 O2B         -2.4640    22.0880    24.6930 O.3          1 COA442   0.0000
    14 C3B         -0.3350    22.7400    25.6340 C.3          1 COA442   0.0000
    15 O3B          0.2530    23.5820    24.4600 O.3          1 COA442   0.0000
    16 P3B          0.3540    25.2150    24.7300 P.3          1 COA442   0.0000
    17 O7A         -1.0030    25.9400    24.3570 O.co2        1 COA442   0.0000
    18 O8A          1.5120    25.7340    23.8060 O.co2        1 COA442  -1.0000
    19 O9A          0.7320    25.3980    26.2710 O.co2        1 COA442  -1.0000
    20 C4B          0.9610    21.9510    26.1980 C.3          1 COA442   0.0000
    21 O4B          0.7600    20.5710    25.5360 O.3          1 COA442   0.0000
    22 C5B          1.1710    22.1630    27.6620 C.3          1 COA442   0.0000
    23 O5B          0.2760    21.1090    28.2300 O.3          1 COA442   0.0000
    24 P1A          0.4300    20.9090    29.8700 P.3          1 COA442   0.0000
    25 O1A          1.2750    21.9730    30.4520 O.co2        1 COA442   0.0000
    26 O2A         -0.9280    20.8450    30.4570 O.co2        1 COA442  -1.0000
    27 O3A          1.2790    19.6530    30.0140 O.3          1 COA442   0.0000
    28 P2A          1.1780    18.1240    30.5580 P.3          1 COA442   0.0000
    29 O4A          1.8420    17.2030    29.6490 O.co2        1 COA442   0.0000
    30 O5A         -0.2650    17.7350    30.6850 O.co2        1 COA442  -1.0000
    31 O6A          1.8030    18.2180    32.0660 O.3          1 COA442   0.0000
    32 CBP          3.0160    19.3010    34.0410 C.3          1 COA442   0.0000
    33 CCP          2.0170    19.4280    32.7810 C.3          1 COA442   0.0000
    34 CDP          4.2700    20.2540    33.8180 C.3          1 COA442   0.0000
    35 CEP          2.2900    19.7460    35.3160 C.3          1 COA442   0.0000
    36 CAP          3.5570    17.7430    34.2540 C.3          1 COA442   0.0000
    37 OAP          3.9870    17.1450    32.9910 O.3          1 COA442   0.0000
    38 C9P          4.7600    17.6130    35.2580 C.2          1 COA442   0.0000
    39 O9P          4.5750    17.9480    36.5250 O.2          1 COA442   0.0000
    40 N8P          5.9160    17.1740    34.8220 N.am         1 COA442   0.0000
    41 C7P          7.1030    17.0090    35.6980 C.3          1 COA442   0.0000
    42 C6P          8.3940    17.0050    34.8750 C.3          1 COA442   0.0000
    43 C5P          8.3670    15.9360    33.7890 C.2          1 COA442   0.0000
    44 O5P          7.2870    15.3910    33.3630 O.2          1 COA442   0.0000
    45 N4P          9.5340    15.6130    33.3150 N.am         1 COA442   0.0000
    46 C3P          9.6900    14.5600    32.2160 C.3          1 COA442   0.0000
    47 C2P         11.1430    14.4600    31.9400 C.3          1 COA442   0.0000
    48 S1P         12.0150    13.9130    33.4620 S.3          1 COA442   0.0000
    49 H2A         -3.3713    17.9717    21.6000 H            1 COA442   0.0000
    50 H6A1        -3.2828    14.9550    26.0282 H            1 COA442   0.0000
    51 H6A2        -4.1272    14.5163    24.5810 H            1 COA442   0.0000
    52 H8A         -0.5796    18.7007    27.3906 H            1 COA442   0.0000
    53 H1B         -0.4386    20.6449    23.8676 H            1 COA442   0.0000
    54 H2B         -1.6610    21.3779    26.3230 H            1 COA442   0.0000
    55 H31         -2.6393    23.0565    24.8697 H            1 COA442   0.0000
    56 H3B         -0.6670    23.3626    26.3426 H            1 COA442   0.0000
    57 H4B          1.7520    22.3613    25.7442 H            1 COA442   0.0000
    58 H5B1         0.8868    23.0789    27.9456 H            1 COA442   0.0000
    59 H5B2         2.1251    22.0146    27.9220 H            1 COA442   0.0000
    60 HCP1         1.1324    19.7517    33.1167 H            1 COA442   0.0000
    61 HCP2         2.3994    20.1004    32.1473 H            1 COA442   0.0000
    62 HDP1         4.8905    20.1765    34.5984 H            1 COA442   0.0000
    63 HDP2         4.7494    19.9842    32.9829 H            1 COA442   0.0000
    64 HDP3         3.9584    21.2004    33.7326 H            1 COA442   0.0000
    65 HEP1         2.9095    19.6672    36.0971 H            1 COA442   0.0000
    66 HEP2         1.9966    20.6969    35.2179 H            1 COA442   0.0000
    67 HEP3         1.4904    19.1641    35.4647 H            1 COA442   0.0000
    68 HAP          2.7976    17.1987    34.6103 H            1 COA442   0.0000
    69 H10          3.4575    17.5376    32.2390 H            1 COA442   0.0000
    70 H8P          6.0021    16.9393    33.8538 H            1 COA442   0.0000
    71 H7P1         7.0272    16.1429    36.1922 H            1 COA442   0.0000
    72 H7P2         7.1344    17.7645    36.3524 H            1 COA442   0.0000
    73 H6P1         9.1665    16.8280    35.4848 H            1 COA442   0.0000
    74 H6P2         8.5071    17.9008    34.4452 H            1 COA442   0.0000
    75 H4P         10.3496    16.0639    33.6777 H            1 COA442   0.0000
    76 H3P1         9.1997    14.8440    31.3920 H            1 COA442   0.0000
    77 H3P2         9.3352    13.6786    32.5279 H            1 COA442   0.0000
    78 H2P1        11.4917    15.3539    31.6584 H            1 COA442   0.0000
    79 H2P2        11.2991    13.7959    31.2088 H            1 COA442   0.0000
    80 H110        13.9360    13.5000    32.6580 H            1 COA442    0.0000
@<TRIPOS>BOND
     1   47   78       1
     2   47   79       1
     3   46   77       1
     4   46   76       1
     5   45   75       1
     6   42   74       1
     7   42   73       1
     8   41   72       1
     9   41   71       1
    10   40   70       1
    11   37   69       1
    12   48   80       1
    13    1    2      ar
    14    1    6      ar
    15    2    3      ar
    16    3    4      ar
    17    4    5      ar
    18    4   10       1
    19    5    6      ar
    20    5    8       1
    21    6    7       1
    22    8    9       2
    23    9   10       1
    24   10   11       1
    25   11   12       1
    26   11   21       1
    27   12   13       1
    28   12   14       1
    29   14   15       1
    30   14   20       1
    31   15   16       1
    32   16   17      ar
    33   16   18      ar
    34   16   19      ar
    35   20   21       1
    36   20   22       1
    37   22   23       1
    38   23   24       1
    39   24   25      ar
    40   24   26      ar
    41   24   27       1
    42   27   28       1
    43   28   29      ar
    44   28   30      ar
    45   28   31       1
    46   31   33       1
    47   32   33       1
    48   32   34       1
    49   32   35       1
    50   32   36       1
    51   36   37       1
    52   36   38       1
    53   38   39       2
    54   38   40      am
    55   40   41       1
    56   41   42       1
    57   42   43       1
    58   43   44       2
    59   43   45      am
    60   45   46       1
    61   46   47       1
    62   47   48       1
    63    2   49       1
    64    7   50       1
    65    7   51       1
    66    9   52       1
    67   11   53       1
    68   12   54       1
    69   13   55       1
    70   14   56       1
    71   36   68       1
    72   20   57       1
    73   22   58       1
    74   22   59       1
    75   35   67       1
    76   35   66       1
    77   33   60       1
    78   33   61       1
    79   34   62       1
    80   34   63       1
    81   34   64       1
    82   35   65       1
@<TRIPOS>SUBSTRUCTURE
     1 COA442      1 GROUP             4 B     COA     0 **** COA B 442
