@<TRIPOS>MOLECULE
1yid_ATP_1_ligand
   43    45     1     0     0
SMALL
NO_CHARGES


@<TRIPOS>ATOM
     1 PG          66.8050   -15.6970     1.5090 P.3          1 ATP3000   0.0000
     2 O1G         66.2150   -14.7100     2.6450 O.co2        1 ATP3000   0.0000
     3 O2G         66.3690   -17.2300     1.9140 O.co2        1 ATP3000  -1.0000
     4 O3G         66.5840   -15.3470     0.1130 O.co2        1 ATP3000  -1.0000
     5 PB          69.8560   -14.8130     1.3460 P.3          1 ATP3000   0.0000
     6 O1B         69.5730   -13.5620     0.5700 O.co2        1 ATP3000   0.0000
     7 O2B         70.7840   -15.7150     0.5220 O.co2        1 ATP3000  -1.0000
     8 O3B         68.4340   -15.8260     1.8640 O.3          1 ATP3000   0.0000
     9 PA          70.2980   -13.4380     3.9020 P.3          1 ATP3000   0.0000
    10 O1A         70.0180   -12.1560     3.2240 O.co2        1 ATP3000   0.0000
    11 O2A         69.2190   -13.9360     4.8040 O.co2        1 ATP3000  -1.0000
    12 O3A         70.7480   -14.4820     2.7110 O.3          1 ATP3000   0.0000
    13 O5'         71.5980   -13.1150     4.8080 O.3          1 ATP3000   0.0000
    14 C5'         72.1110   -14.1630     5.6420 C.3          1 ATP3000   0.0000
    15 C4'         73.5930   -14.2340     5.8240 C.3          1 ATP3000   0.0000
    16 O4'         74.2510   -15.1460     4.8760 O.3          1 ATP3000   0.0000
    17 C3'         74.4690   -12.9740     5.7400 C.3          1 ATP3000   0.0000
    18 O3'         75.5890   -13.1340     6.6340 O.3          1 ATP3000   0.0000
    19 C2'         74.8460   -12.9530     4.2700 C.3          1 ATP3000   0.0000
    20 O2'         75.9750   -12.1770     3.9200 O.3          1 ATP3000   0.0000
    21 C1'         75.0780   -14.4000     3.9580 C.3          1 ATP3000   0.0000
    22 N9          74.8860   -14.8310     2.5330 N.pl3        1 ATP3000   0.0000
    23 C8          73.7680   -15.2780     1.8910 C.2          1 ATP3000   0.0000
    24 N7          73.9420   -15.5880     0.6210 N.2          1 ATP3000   0.0000
    25 C5          75.2810   -15.3130     0.3840 C.ar         1 ATP3000   0.0000
    26 C6          76.0980   -15.4370    -0.7830 C.ar         1 ATP3000   0.0000
    27 N6          75.6330   -15.8620    -1.9750 N.pl3        1 ATP3000   0.0000
    28 N1          77.4380   -15.0850    -0.6820 N.ar         1 ATP3000   0.0000
    29 C2          77.9070   -14.6460     0.5070 C.ar         1 ATP3000   0.0000
    30 N3          77.2350   -14.4940     1.6810 N.ar         1 ATP3000   0.0000
    31 C4          75.9050   -14.8490     1.5540 C.ar         1 ATP3000   0.0000
    32 H5'1        71.8153   -15.0327     5.2469 H            1 ATP3000   0.0000
    33 H5'2        71.7025   -14.0525     6.5480 H            1 ATP3000   0.0000
    34 H4'         73.7447   -14.6197     6.7341 H            1 ATP3000   0.0000
    35 H3'         73.9399   -12.1601     5.9799 H            1 ATP3000   0.0000
    36 H5          75.3485   -12.7774     7.5368 H            1 ATP3000   0.0000
    37 H2'         74.0599   -12.6326     3.7415 H            1 ATP3000   0.0000
    38 H7          76.7974   -12.7438     3.9694 H            1 ATP3000   0.0000
    39 H1'         76.0286   -14.5994     4.1960 H            1 ATP3000   0.0000
    40 H9          72.8832   -15.3641     2.3490 H            1 ATP3000   0.0000
    41 H10         76.2515   -15.9290    -2.7579 H            1 ATP3000   0.0000
    42 H11         74.6696   -16.1102    -2.0762 H            1 ATP3000   0.0000
    43 H12         78.8761   -14.4003     0.5270 H            1 ATP3000   0.0000
@<TRIPOS>BOND
     1    1    2      ar
     2    1    3      ar
     3    1    4      ar
     4    1    8       1
     5    5    6      ar
     6    5    7      ar
     7    5    8       1
     8    5   12       1
     9    9   10      ar
    10    9   11      ar
    11    9   12       1
    12    9   13       1
    13   13   14       1
    14   14   15       1
    15   15   16       1
    16   15   17       1
    17   16   21       1
    18   17   18       1
    19   17   19       1
    20   19   20       1
    21   19   21       1
    22   21   22       1
    23   22   23       1
    24   22   31       1
    25   23   24       2
    26   24   25       1
    27   25   26      ar
    28   25   31      ar
    29   26   27       1
    30   26   28      ar
    31   28   29      ar
    32   29   30      ar
    33   30   31      ar
    34   29   43       1
    35   27   42       1
    36   27   41       1
    37   23   40       1
    38   14   32       1
    39   14   33       1
    40   15   34       1
    41   17   35       1
    42   18   36       1
    43   19   37       1
    44   20   38       1
    45   21   39       1
@<TRIPOS>SUBSTRUCTURE
     1 ATP3000     1 GROUP             4 B     ATP     0 **** ATP B3000
