@<TRIPOS>MOLECULE
4lt6_3AT_2_ligand
   42    44     1     0     0
SMALL
NO_CHARGES


@<TRIPOS>ATOM
     1 PG         -32.9150    -6.8550    -5.5250 P.3          1 3AT601   0.0000
     2 O1G        -33.7000    -6.1190    -6.6680 O.co2        1 3AT601   0.0000
     3 O2G        -31.9160    -5.9070    -4.8680 O.co2        1 3AT601  -1.0000
     4 O3G        -33.8970    -7.2920    -4.5100 O.co2        1 3AT601  -1.0000
     5 PB         -32.7050    -9.1000    -7.1590 P.3          1 3AT601   0.0000
     6 O1B        -34.1600    -8.7620    -7.4780 O.co2        1 3AT601   0.0000
     7 O2B        -32.5610   -10.6130    -6.6170 O.co2        1 3AT601  -1.0000
     8 O3B        -32.1200    -8.0690    -6.0420 O.3          1 3AT601   0.0000
     9 PA         -31.4450    -7.7510    -9.2390 P.3          1 3AT601   0.0000
    10 O1A        -32.3900    -6.6130    -8.9790 O.co2        1 3AT601   0.0000
    11 O2A        -29.9990    -7.3210    -8.8420 O.co2        1 3AT601  -1.0000
    12 O3A        -31.8330    -9.0610    -8.4310 O.3          1 3AT601   0.0000
    13 O5'        -31.5380    -8.1490   -10.7110 O.3          1 3AT601   0.0000
    14 C5'        -32.7880    -8.5020   -11.2720 C.3          1 3AT601   0.0000
    15 C4'        -33.0300    -9.8280   -11.8000 C.3          1 3AT601   0.0000
    16 O4'        -32.0130   -10.2440   -12.8050 O.3          1 3AT601   0.0000
    17 C3'        -33.0270   -10.8500   -10.7310 C.3          1 3AT601   0.0000
    18 C2'        -31.8760   -11.7510   -11.0130 C.3          1 3AT601   0.0000
    19 O2'        -32.2110   -13.0340   -10.9660 O.3          1 3AT601   0.0000
    20 C1'        -31.4000   -11.4510   -12.3980 C.3          1 3AT601   0.0000
    21 N9         -29.8290   -11.5350   -12.6400 N.pl3        1 3AT601   0.0000
    22 C8         -28.9430   -10.5280   -12.4640 C.2          1 3AT601   0.0000
    23 N7         -27.7060   -10.9960   -12.7430 N.2          1 3AT601   0.0000
    24 C5         -27.8090   -12.2990   -13.1060 C.ar         1 3AT601   0.0000
    25 C6         -26.8870   -13.2690   -13.4960 C.ar         1 3AT601   0.0000
    26 N6         -25.4900   -12.9620   -13.5670 N.pl3        1 3AT601   0.0000
    27 N1         -27.3520   -14.5010   -13.7920 N.ar         1 3AT601   0.0000
    28 C2         -28.6510   -14.8110   -13.7210 C.ar         1 3AT601   0.0000
    29 N3         -29.5540   -13.8980   -13.3440 N.ar         1 3AT601   0.0000
    30 C4         -29.1670   -12.6430   -13.0340 C.ar         1 3AT601   0.0000
    31 H5'1       -32.9501    -7.8641   -12.0249 H            1 3AT601   0.0000
    32 H5'2       -33.4708    -8.3537   -10.5566 H            1 3AT601   0.0000
    33 H4'        -33.9283    -9.8336   -12.2393 H            1 3AT601   0.0000
    34 H3'1       -33.8826   -11.3674   -10.7450 H            1 3AT601   0.0000
    35 H3'2       -32.9149   -10.4153    -9.8374 H            1 3AT601   0.0000
    36 H2'        -31.1410   -11.5716   -10.3591 H            1 3AT601   0.0000
    37 H7         -31.4071   -13.5958   -11.1614 H            1 3AT601   0.0000
    38 H1'        -31.7983   -12.1620   -12.9776 H            1 3AT601   0.0000
    39 H9         -29.1653    -9.5964   -12.1765 H            1 3AT601   0.0000
    40 H10        -24.8371   -13.6654   -13.8480 H            1 3AT601   0.0000
    41 H11        -25.1674   -12.0442   -13.3356 H            1 3AT601   0.0000
    42 H12        -28.9513   -15.7363   -13.9524 H            1 3AT601   0.0000
@<TRIPOS>BOND
     1    1    2      ar
     2    1    3      ar
     3    1    4      ar
     4    1    8       1
     5    5    6      ar
     6    5    7      ar
     7    5    8       1
     8    5   12       1
     9    9   10      ar
    10    9   11      ar
    11    9   12       1
    12    9   13       1
    13   13   14       1
    14   14   15       1
    15   15   16       1
    16   15   17       1
    17   16   20       1
    18   17   18       1
    19   18   19       1
    20   18   20       1
    21   20   21       1
    22   21   22       1
    23   21   30       1
    24   22   23       2
    25   23   24       1
    26   24   25      ar
    27   24   30      ar
    28   25   26       1
    29   25   27      ar
    30   27   28      ar
    31   28   29      ar
    32   29   30      ar
    33   28   42       1
    34   26   41       1
    35   26   40       1
    36   22   39       1
    37   14   31       1
    38   14   32       1
    39   15   33       1
    40   17   34       1
    41   17   35       1
    42   18   36       1
    43   19   37       1
    44   20   38       1
@<TRIPOS>SUBSTRUCTURE
     1 3AT601      1 GROUP             4 B     3AT     0 **** 3AT B 601
