@<TRIPOS>MOLECULE
3qj0_QI3_1_ligand
   42    44     1     0     0
SMALL
NO_CHARGES


@<TRIPOS>ATOM
     1 C1         -19.5130    35.1510    -5.3980 C.2          1 QI3432   0.0000
     2 N1         -21.8870    35.4460    -5.7760 N.3          1 QI3432   0.0000
     3 O1         -18.6060    35.9580    -5.4120 O.2          1 QI3432   0.0000
     4 C2         -20.7510    35.8220    -5.0040 C.3          1 QI3432   0.0000
     5 C3         -21.0430    35.4800    -3.5790 C.3          1 QI3432   0.0000
     6 C4         -22.4940    35.3060    -3.6200 C.3          1 QI3432   0.0000
     7 O2         -18.2080    33.2220    -6.0710 O.3          1 QI3432  -1.0000
     8 N2         -19.3640    33.7510    -5.7240 N.am         1 QI3432   0.0000
     9 C5         -22.5460    37.6720    -3.2240 C.ar         1 QI3432   0.0000
    10 C6         -22.2050    38.7260    -4.0910 C.ar         1 QI3432   0.0000
    11 C7         -21.6450    39.9310    -3.5490 C.ar         1 QI3432   0.0000
    12 C8         -22.3850    37.8050    -1.8320 C.ar         1 QI3432   0.0000
    13 C9         -21.8250    39.0090    -1.2870 C.ar         1 QI3432   0.0000
    14 C10        -21.4670    40.0560    -2.1450 C.ar         1 QI3432   0.0000
    15 CL1        -20.7920    41.5100    -1.4490 Cl           1 QI3432   0.0000
    16 O3         -20.9240    35.6640    -8.1520 O.2          1 QI3432   0.0000
    17 S1         -22.2130    35.6380    -7.3520 S.o2         1 QI3432   0.0000
    18 C11        -23.1410    37.1680    -7.5310 C.ar         1 QI3432   0.0000
    19 C12        -24.4790    37.0980    -7.3440 C.ar         1 QI3432   0.0000
    20 C13        -25.2930    38.2490    -7.4350 C.ar         1 QI3432   0.0000
    21 O4         -23.1030    34.5220    -7.7130 O.2          1 QI3432   0.0000
    22 C14        -22.5430    38.4250    -7.8140 C.ar         1 QI3432   0.0000
    23 C15        -23.3470    39.5920    -7.9060 C.ar         1 QI3432   0.0000
    24 C16        -24.7030    39.5000    -7.7190 C.ar         1 QI3432   0.0000
    25 CL2        -25.7250    40.8680    -7.8160 Cl           1 QI3432   0.0000
    26 O5         -23.1440    36.5150    -3.7520 O.3          1 QI3432   0.0000
    27 C17        -22.7370    34.6560    -4.9310 C.3          1 QI3432   0.0000
    28 H1         -20.6213    36.8107    -5.0795 H            1 QI3432   0.0000
    29 H2         -20.7803    36.2224    -2.9628 H            1 QI3432   0.0000
    30 H3         -20.5806    34.6376    -3.3022 H            1 QI3432   0.0000
    31 H4         -22.8387    34.7654    -2.8526 H            1 QI3432   0.0000
    32 H5         -20.1700    33.1603    -5.6847 H            1 QI3432   0.0000
    33 H6         -22.3515    38.6364    -5.0761 H            1 QI3432   0.0000
    34 H7         -21.3811    40.6797    -4.1571 H            1 QI3432   0.0000
    35 H8         -22.6606    37.0611    -1.2231 H            1 QI3432   0.0000
    36 H9         -21.6913    39.0995    -0.3001 H            1 QI3432   0.0000
    37 H10        -24.8998    36.2147    -7.1374 H            1 QI3432   0.0000
    38 H11        -26.2812    38.1782    -7.2991 H            1 QI3432   0.0000
    39 H12        -21.5541    38.4883    -7.9487 H            1 QI3432   0.0000
    40 H13        -22.9266    40.4770    -8.1062 H            1 QI3432   0.0000
    41 H14        -22.4602    33.6951    -4.9236 H            1 QI3432   0.0000
    42 H15        -23.6963    34.7244    -5.2048 H            1 QI3432   0.0000
@<TRIPOS>BOND
     1    1    3       2
     2    1    4       1
     3    1    8      am
     4    2    4       1
     5    2   17       1
     6    2   27       1
     7    4    5       1
     8    5    6       1
     9    6   26       1
    10    6   27       1
    11    7    8       1
    12    9   10      ar
    13    9   12      ar
    14    9   26       1
    15   10   11      ar
    16   11   14      ar
    17   12   13      ar
    18   13   14      ar
    19   14   15       1
    20   16   17       2
    21   17   18       1
    22   17   21       2
    23   18   19      ar
    24   18   22      ar
    25   19   20      ar
    26   20   24      ar
    27   22   23      ar
    28   23   24      ar
    29   24   25       1
    30    4   28       1
    31    5   29       1
    32    5   30       1
    33    6   31       1
    34   27   42       1
    35    8   32       1
    36   10   33       1
    37   11   34       1
    38   12   35       1
    39   13   36       1
    40   19   37       1
    41   20   38       1
    42   22   39       1
    43   23   40       1
    44   27   41       1
@<TRIPOS>SUBSTRUCTURE
     1 QI3432      1 GROUP             4 A     QI3     0 **** QI3 A 432
