@<TRIPOS>MOLECULE
4jd3_COA_1_ligand
   80    82     1     0     0
SMALL
NO_CHARGES


@<TRIPOS>ATOM
     1 N1A         33.2070   -23.8720    90.5050 N.ar         1 COA402   0.0000
     2 C2A         33.3900   -24.7590    91.4750 C.ar         1 COA402   0.0000
     3 N3A         34.5850   -25.0490    91.9500 N.ar         1 COA402   0.0000
     4 C4A         35.6760   -24.4470    91.4590 C.ar         1 COA402   0.0000
     5 C5A         35.5670   -23.4720    90.4020 C.ar         1 COA402   0.0000
     6 C6A         34.2260   -23.2120    89.9360 C.ar         1 COA402   0.0000
     7 N6A         34.0860   -22.3220    88.9530 N.pl3        1 COA402   0.0000
     8 N7A         36.7810   -23.0190    90.1060 N.2          1 COA402   0.0000
     9 C8A         37.6180   -23.6660    90.9260 C.2          1 COA402   0.0000
    10 N9A         36.9530   -24.5020    91.7170 N.pl3        1 COA402   0.0000
    11 C1B         37.5110   -25.3610    92.7390 C.3          1 COA402   0.0000
    12 C2B         38.5090   -26.2930    92.1180 C.3          1 COA402   0.0000
    13 O2B         37.8590   -27.4780    91.6580 O.3          1 COA402   0.0000
    14 C3B         39.4340   -26.4960    93.2770 C.3          1 COA402   0.0000
    15 O3B         38.7190   -27.3270    94.1420 O.3          1 COA402   0.0000
    16 P3B         39.2160   -28.5760    94.9190 P.3          1 COA402   0.0000
    17 O7A         38.1020   -28.6390    95.8550 O.co2        1 COA402   0.0000
    18 O8A         40.4660   -28.1320    95.5180 O.co2        1 COA402  -1.0000
    19 O9A         39.2370   -29.6640    93.9320 O.co2        1 COA402  -1.0000
    20 C4B         39.4240   -25.1550    93.9680 C.3          1 COA402   0.0000
    21 O4B         38.2160   -24.5230    93.6190 O.3          1 COA402   0.0000
    22 C5B         40.5770   -24.2650    93.5700 C.3          1 COA402   0.0000
    23 O5B         40.4560   -23.7480    92.2720 O.3          1 COA402   0.0000
    24 P1A         41.4990   -24.2080    91.1990 P.3          1 COA402   0.0000
    25 O1A         41.7840   -25.6460    91.3610 O.co2        1 COA402   0.0000
    26 O2A         41.0180   -23.7430    89.8900 O.co2        1 COA402  -1.0000
    27 O3A         42.8600   -23.4580    91.5420 O.3          1 COA402   0.0000
    28 P2A         43.2080   -21.9330    91.8210 P.3          1 COA402   0.0000
    29 O4A         44.5610   -21.8090    91.2520 O.co2        1 COA402   0.0000
    30 O5A         42.9180   -21.6530    93.2260 O.co2        1 COA402  -1.0000
    31 O6A         42.1400   -21.0680    91.0540 O.3          1 COA402   0.0000
    32 CBP         41.0090   -19.3770    89.7300 C.3          1 COA402   0.0000
    33 CCP         42.2500   -20.2650    89.8820 C.3          1 COA402   0.0000
    34 CDP         39.7920   -19.8820    90.5100 C.3          1 COA402   0.0000
    35 CEP         41.3690   -18.0030    90.2660 C.3          1 COA402   0.0000
    36 CAP         40.5020   -19.1840    88.2830 C.3          1 COA402   0.0000
    37 OAP         41.5860   -18.8510    87.4370 O.3          1 COA402   0.0000
    38 C9P         39.6560   -20.3030    87.6930 C.2          1 COA402   0.0000
    39 O9P         39.9590   -21.4520    87.8670 O.2          1 COA402   0.0000
    40 N8P         38.5510   -19.9510    87.0100 N.am         1 COA402   0.0000
    41 C7P         38.0380   -20.4760    85.7310 C.3          1 COA402   0.0000
    42 C6P         37.8940   -19.3890    84.6560 C.3          1 COA402   0.0000
    43 C5P         36.5020   -19.1310    84.1170 C.2          1 COA402   0.0000
    44 O5P         35.6690   -19.9330    84.2930 O.2          1 COA402   0.0000
    45 N4P         36.2190   -18.0440    83.3900 N.am         1 COA402   0.0000
    46 C3P         35.2750   -17.0000    83.7420 C.3          1 COA402   0.0000
    47 C2P         34.3590   -16.5700    82.6330 C.3          1 COA402   0.0000
    48 S1P         34.8260   -15.0430    81.7660 S.3          1 COA402   0.0000
    49 H2A         32.5926   -25.2242    91.8595 H            1 COA402   0.0000
    50 H6A1        34.8907   -21.8654    88.5736 H            1 COA402   0.0000
    51 H6A2        33.1763   -22.1111    88.5952 H            1 COA402   0.0000
    52 H8A         38.6096   -23.5378    90.9414 H            1 COA402   0.0000
    53 H1B         36.7933   -25.8665    93.2180 H            1 COA402   0.0000
    54 H2B         38.9869   -25.8416    91.3644 H            1 COA402   0.0000
    55 H7          38.2455   -28.2731    92.1254 H            1 COA402   0.0000
    56 H3B         40.3432   -26.8323    93.0315 H            1 COA402   0.0000
    57 H4B         39.4457   -25.2963    94.9577 H            1 COA402   0.0000
    58 H5B1        41.4218   -24.7976    93.6221 H            1 COA402   0.0000
    59 H5B2        40.6246   -23.5006    94.2130 H            1 COA402   0.0000
    60 HCP1        42.3315   -20.8586    89.0814 H            1 COA402   0.0000
    61 HCP2        43.0630   -19.6871    89.9527 H            1 COA402   0.0000
    62 HDP1        39.0226   -19.2594    90.3671 H            1 COA402   0.0000
    63 HDP2        39.5454   -20.7960    90.1879 H            1 COA402   0.0000
    64 HDP3        40.0131   -19.9204    91.4845 H            1 COA402   0.0000
    65 HEP1        40.5794   -17.3951    90.1822 H            1 COA402   0.0000
    66 HEP2        41.6308   -18.0786    91.2281 H            1 COA402   0.0000
    67 HEP3        42.1339   -17.6302    89.7407 H            1 COA402   0.0000
    68 HAP         39.9125   -18.3765    88.3043 H            1 COA402   0.0000
    69 H21         41.2534   -18.7271    86.5021 H            1 COA402   0.0000
    70 H8P         37.9990   -19.2305    87.4298 H            1 COA402   0.0000
    71 H7P1        37.1408   -20.8874    85.8914 H            1 COA402   0.0000
    72 H7P2        38.6701   -21.1748    85.3960 H            1 COA402   0.0000
    73 H6P1        38.4723   -19.6510    83.8834 H            1 COA402   0.0000
    74 H6P2        38.2290   -18.5320    85.0475 H            1 COA402   0.0000
    75 H4P         36.7042   -17.9414    82.5216 H            1 COA402   0.0000
    76 H3P1        35.7950   -16.2003    84.0420 H            1 COA402   0.0000
    77 H3P2        34.7114   -17.3338    84.4976 H            1 COA402   0.0000
    78 H2P1        33.4481   -16.4348    83.0229 H            1 COA402   0.0000
    79 H2P2        34.3268   -17.3077    81.9587 H            1 COA402   0.0000
    80 H1P         34.0026   -14.5837    81.4328 H            1 COA402   0.0000
@<TRIPOS>BOND
     1    1    2      ar
     2    1    6      ar
     3    2    3      ar
     4    3    4      ar
     5    4    5      ar
     6    4   10       1
     7    5    6      ar
     8    5    8       1
     9    6    7       1
    10    8    9       2
    11    9   10       1
    12   10   11       1
    13   11   12       1
    14   11   21       1
    15   12   13       1
    16   12   14       1
    17   14   15       1
    18   14   20       1
    19   15   16       1
    20   16   17      ar
    21   16   18      ar
    22   16   19      ar
    23   20   21       1
    24   20   22       1
    25   22   23       1
    26   23   24       1
    27   24   25      ar
    28   24   26      ar
    29   24   27       1
    30   27   28       1
    31   28   29      ar
    32   28   30      ar
    33   28   31       1
    34   31   33       1
    35   32   33       1
    36   32   34       1
    37   32   35       1
    38   32   36       1
    39   36   37       1
    40   36   38       1
    41   38   39       2
    42   38   40      am
    43   40   41       1
    44   41   42       1
    45   42   43       1
    46   43   44       2
    47   43   45      am
    48   45   46       1
    49   46   47       1
    50   47   48       1
    51    2   49       1
    52    7   50       1
    53    7   51       1
    54    9   52       1
    55   11   53       1
    56   12   54       1
    57   13   55       1
    58   14   56       1
    59   48   80       1
    60   47   79       1
    61   20   57       1
    62   22   58       1
    63   22   59       1
    64   47   78       1
    65   46   77       1
    66   33   60       1
    67   33   61       1
    68   34   62       1
    69   34   63       1
    70   34   64       1
    71   35   65       1
    72   35   66       1
    73   35   67       1
    74   36   68       1
    75   37   69       1
    76   40   70       1
    77   41   71       1
    78   41   72       1
    79   42   73       1
    80   42   74       1
    81   45   75       1
    82   46   76       1
@<TRIPOS>SUBSTRUCTURE
     1 COA402      1 GROUP             4 B     COA     0 **** COA B 402
