@<TRIPOS>MOLECULE
5dt9_NAD_1_ligand
   70    74     1     0     0
SMALL
NO_CHARGES


@<TRIPOS>ATOM
     1 PA          16.7590    50.4670    19.5430 P.3          1 NAD401   0.0000
     2 O1A         16.4420    51.7900    20.1180 O.co2        1 NAD401   0.0000
     3 O2A         15.8470    49.3330    19.8010 O.co2        1 NAD401  -1.0000
     4 O5B         18.2280    50.0300    20.0530 O.3          1 NAD401   0.0000
     5 C5B         19.4140    50.6340    20.6100 C.3          1 NAD401   0.0000
     6 C4B         19.3860    50.1580    22.0770 C.3          1 NAD401   0.0000
     7 O4B         20.1000    51.4590    22.2540 O.3          1 NAD401   0.0000
     8 C3B         18.5590    50.4470    23.3190 C.3          1 NAD401   0.0000
     9 O3B         19.0380    49.6800    24.4260 O.3          1 NAD401   0.0000
    10 C2B         18.7900    51.8880    23.5280 C.3          1 NAD401   0.0000
    11 O2B         18.2830    52.2810    24.8030 O.3          1 NAD401   0.0000
    12 C1B         20.3070    51.6090    23.6570 C.3          1 NAD401   0.0000
    13 N9A         21.0360    52.8640    23.9070 N.pl3        1 NAD401   0.0000
    14 C8A         20.7770    54.1570    23.7430 C.2          1 NAD401   0.0000
    15 N7A         21.8500    54.8380    24.1530 N.2          1 NAD401   0.0000
    16 C5A         22.7740    53.9700    24.5650 C.ar         1 NAD401   0.0000
    17 C6A         24.0050    54.1330    25.0610 C.ar         1 NAD401   0.0000
    18 N6A         24.4360    55.3850    25.1880 N.pl3        1 NAD401   0.0000
    19 N1A         24.7750    53.0960    25.4170 N.ar         1 NAD401   0.0000
    20 C2A         24.2710    51.8050    25.2640 C.ar         1 NAD401   0.0000
    21 N3A         22.9810    51.6640    24.7440 N.ar         1 NAD401   0.0000
    22 C4A         22.2690    52.7490    24.4000 C.ar         1 NAD401   0.0000
    23 O3          16.9180    50.6390    17.9430 O.3          1 NAD401   0.0000
    24 PN          17.2920    49.3640    17.0040 P.3          1 NAD401   0.0000
    25 O1N         16.2420    49.1900    15.9780 O.co2        1 NAD401   0.0000
    26 O2N         17.6530    48.2320    17.8840 O.co2        1 NAD401  -1.0000
    27 O5D         18.6430    49.9050    16.3070 O.3          1 NAD401   0.0000
    28 C5D         19.9900    49.9030    16.7990 C.3          1 NAD401   0.0000
    29 C4D         20.7220    51.1400    16.2010 C.3          1 NAD401   0.0000
    30 O4D         20.4000    50.3670    14.9580 O.3          1 NAD401   0.0000
    31 C3D         20.2020    52.3890    15.4510 C.3          1 NAD401   0.0000
    32 O3D         21.2930    53.2280    15.0530 O.3          1 NAD401   0.0000
    33 C2D         19.5600    51.7770    14.2620 C.3          1 NAD401   0.0000
    34 O2D         19.1810    52.7980    13.3260 O.3          1 NAD401   0.0000
    35 C1D         20.8440    51.1250    13.8120 C.3          1 NAD401   0.0000
    36 N1N         20.5500    50.3790    12.5670 N.ar         1 NAD401   1.0000
    37 C2N         21.5760    50.0760    11.6610 C.ar         1 NAD401   0.0000
    38 C3N         21.2970    49.3610    10.4990 C.ar         1 NAD401   0.0000
    39 C7N         22.2960    49.1150     9.5600 C.2          1 NAD401   0.0000
    40 O7N         21.9410    48.4160     8.4500 O.2          1 NAD401   0.0000
    41 N7N         23.5100    49.6250     9.8080 N.am         1 NAD401   0.0000
    42 C4N         20.0120    48.8820    10.2690 C.ar         1 NAD401   0.0000
    43 C5N         18.9990    49.1250    11.1900 C.ar         1 NAD401   0.0000
    44 C6N         19.2680    49.8550    12.3420 C.ar         1 NAD401   0.0000
    45 H5B1        19.3699    51.6315    20.5544 H            1 NAD401   0.0000
    46 H5B2        20.2364    50.3101    20.1422 H            1 NAD401   0.0000
    47 H4B         20.0006    49.3823    22.2205 H            1 NAD401   0.0000
    48 H3B         17.5904    50.2630    23.1517 H            1 NAD401   0.0000
    49 H5          19.4308    48.8229    24.0926 H            1 NAD401   0.0000
    50 H2B         18.5278    52.4776    22.7641 H            1 NAD401   0.0000
    51 H7          18.7497    51.7645    25.5209 H            1 NAD401   0.0000
    52 H1B         20.5871    50.7997    24.1733 H            1 NAD401   0.0000
    53 H8A         19.9321    54.5488    23.3788 H            1 NAD401   0.0000
    54 H6A1        25.3492    55.5648    25.5537 H            1 NAD401   0.0000
    55 H6A2        23.8468    56.1465    24.9178 H            1 NAD401   0.0000
    56 H2A         24.8150    51.0053    25.5182 H            1 NAD401   0.0000
    57 H5D1        20.4539    49.0639    16.5148 H            1 NAD401   0.0000
    58 H5D2        19.9868    49.9604    17.7973 H            1 NAD401   0.0000
    59 H4D         21.6984    51.1740    16.4143 H            1 NAD401   0.0000
    60 H3D         19.5381    52.8938    16.0028 H            1 NAD401   0.0000
    61 H17         21.7989    53.5237    15.8633 H            1 NAD401   0.0000
    62 H2D         18.8285    51.1310    14.4800 H            1 NAD401   0.0000
    63 H19         18.7495    52.3758    12.5288 H            1 NAD401   0.0000
    64 H1D         21.6973    51.6425    13.8756 H            1 NAD401   0.0000
    65 H2N         22.5116    50.3744    11.8498 H            1 NAD401   0.0000
    66 H7N1        24.2576    49.4735     9.1613 H            1 NAD401   0.0000
    67 H7N2        23.6684    50.1571    10.6397 H            1 NAD401   0.0000
    68 H4N         19.8157    48.3610     9.4383 H            1 NAD401   0.0000
    69 H5N         18.0772    48.7747    11.0237 H            1 NAD401   0.0000
    70 H6N         18.5436    50.0076    13.0143 H            1 NAD401   0.0000
@<TRIPOS>BOND
     1    1    2      ar
     2    1    3      ar
     3    1    4       1
     4    1   23       1
     5    4    5       1
     6    5    6       1
     7    6    7       1
     8    6    8       1
     9    7   12       1
    10    8    9       1
    11    8   10       1
    12   10   11       1
    13   10   12       1
    14   12   13       1
    15   13   14       1
    16   13   22       1
    17   14   15       2
    18   15   16       1
    19   16   17      ar
    20   16   22      ar
    21   17   18       1
    22   17   19      ar
    23   19   20      ar
    24   20   21      ar
    25   21   22      ar
    26   23   24       1
    27   24   25      ar
    28   24   26      ar
    29   24   27       1
    30   27   28       1
    31   28   29       1
    32   29   30       1
    33   29   31       1
    34   43   44      ar
    35   30   35       1
    36   31   32       1
    37   31   33       1
    38   33   34       1
    39   33   35       1
    40   35   36       1
    41   36   37      ar
    42   36   44      ar
    43   37   38      ar
    44   38   39       1
    45   38   42      ar
    46   39   40       2
    47   39   41      am
    48   42   43      ar
    49   44   70       1
    50    5   45       1
    51    5   46       1
    52    6   47       1
    53    8   48       1
    54    9   49       1
    55   10   50       1
    56   11   51       1
    57   12   52       1
    58   14   53       1
    59   18   54       1
    60   18   55       1
    61   20   56       1
    62   43   69       1
    63   28   57       1
    64   28   58       1
    65   29   59       1
    66   31   60       1
    67   32   61       1
    68   33   62       1
    69   34   63       1
    70   35   64       1
    71   37   65       1
    72   41   66       1
    73   41   67       1
    74   42   68       1
@<TRIPOS>SUBSTRUCTURE
     1 NAD401      1 GROUP             4 A     NAD     0 **** NAD A 401
