@<TRIPOS>MOLECULE
4ii5_ADP_2_ligand
   39    41     1     0     0
SMALL
NO_CHARGES


@<TRIPOS>ATOM
     1 PB          -1.5620   -24.8730     4.3280 P.3          1 ADP301   0.0000
     2 O1B         -2.7950   -24.3830     3.5950 O.co2        1 ADP301   0.0000
     3 O2B         -1.8290   -25.2170     5.7830 O.co2        1 ADP301  -1.0000
     4 O3B         -0.7680   -25.9430     3.5800 O.co2        1 ADP301  -1.0000
     5 PA           0.7150   -23.2980     3.4550 P.3          1 ADP301   0.0000
     6 O1A          1.3670   -24.5930     3.0010 O.co2        1 ADP301   0.0000
     7 O2A          1.6020   -22.2960     4.1750 O.co2        1 ADP301  -1.0000
     8 O3A         -0.5800   -23.5820     4.4000 O.3          1 ADP301   0.0000
     9 O5'          0.1260   -22.5510     2.1470 O.3          1 ADP301   0.0000
    10 C5'         -0.7110   -23.2020     1.1900 C.3          1 ADP301   0.0000
    11 C4'         -0.3020   -22.7940    -0.2240 C.3          1 ADP301   0.0000
    12 O4'         -0.3560   -21.3710    -0.3740 O.3          1 ADP301   0.0000
    13 C3'          1.1190   -23.2300    -0.5630 C.3          1 ADP301   0.0000
    14 O3'          1.1540   -24.4510    -1.3040 O.3          1 ADP301   0.0000
    15 C2'          1.6910   -22.0960    -1.3840 C.3          1 ADP301   0.0000
    16 O2'          1.7140   -22.4210    -2.7790 O.3          1 ADP301   0.0000
    17 C1'          0.7900   -20.9060    -1.0930 C.3          1 ADP301   0.0000
    18 N9           1.6190   -19.9900    -0.2760 N.pl3        1 ADP301   0.0000
    19 C8           1.7410   -20.0020     1.0660 C.2          1 ADP301   0.0000
    20 N7           2.5940   -19.0280     1.4780 N.2          1 ADP301   0.0000
    21 C5           3.0450   -18.3950     0.3780 C.ar         1 ADP301   0.0000
    22 C6           3.9690   -17.2770     0.0900 C.ar         1 ADP301   0.0000
    23 N6           4.6070   -16.6370     1.0910 N.pl3        1 ADP301   0.0000
    24 N1           4.1470   -16.9230    -1.2000 N.ar         1 ADP301   0.0000
    25 C2           3.5260   -17.5520    -2.2120 C.ar         1 ADP301   0.0000
    26 N3           2.6770   -18.5720    -2.0240 N.ar         1 ADP301   0.0000
    27 C4           2.4010   -19.0330    -0.7780 C.ar         1 ADP301   0.0000
    28 H5'1        -1.6626   -22.9386     1.3486 H            1 ADP301   0.0000
    29 H5'2        -0.6185   -24.1928     1.2887 H            1 ADP301   0.0000
    30 H4'         -0.9333   -23.2124    -0.8769 H            1 ADP301   0.0000
    31 H3'          1.6477   -23.3339     0.2794 H            1 ADP301   0.0000
    32 H5           2.1037   -24.6941    -1.5013 H            1 ADP301   0.0000
    33 H2'          2.6199   -21.8948    -1.0731 H            1 ADP301   0.0000
    34 H7           2.2791   -23.2334    -2.9227 H            1 ADP301   0.0000
    35 H1'          0.5121   -20.4610    -1.9443 H            1 ADP301   0.0000
    36 H9           1.2689   -20.6397     1.6746 H            1 ADP301   0.0000
    37 H10          5.2298   -15.8822     0.8851 H            1 ADP301   0.0000
    38 H11          4.4573   -16.9172     2.0392 H            1 ADP301   0.0000
    39 H12          3.7052   -17.2455    -3.1469 H            1 ADP301   0.0000
@<TRIPOS>BOND
     1    1    2      ar
     2    1    3      ar
     3    1    4      ar
     4    1    8       1
     5    5    6      ar
     6    5    7      ar
     7    5    8       1
     8    5    9       1
     9    9   10       1
    10   10   11       1
    11   11   12       1
    12   11   13       1
    13   12   17       1
    14   13   14       1
    15   13   15       1
    16   15   16       1
    17   15   17       1
    18   17   18       1
    19   18   19       1
    20   18   27       1
    21   19   20       2
    22   20   21       1
    23   21   22      ar
    24   21   27      ar
    25   22   23       1
    26   22   24      ar
    27   24   25      ar
    28   25   26      ar
    29   26   27      ar
    30   25   39       1
    31   23   38       1
    32   23   37       1
    33   10   28       1
    34   10   29       1
    35   11   30       1
    36   13   31       1
    37   14   32       1
    38   15   33       1
    39   16   34       1
    40   17   35       1
    41   19   36       1
@<TRIPOS>SUBSTRUCTURE
     1 ADP301      1 GROUP             4 C     ADP     0 **** ADP C 301
