@<TRIPOS>MOLECULE
3oro_AGS_1_ligand
   43    45     1     0     0
SMALL
NO_CHARGES


@<TRIPOS>ATOM
     1 PG          39.0790    41.4700     9.2650 P.3          1 AGS340   0.0000
     2 S1G         40.3040    42.4090     8.4580 S.2          1 AGS340   0.0000
     3 O2G         37.7940    41.4400     8.4290 O.co2        1 AGS340  -1.0000
     4 O3G         38.7190    41.9710    10.6680 O.co2        1 AGS340  -1.0000
     5 PB          40.1360    38.8120     8.5630 P.3          1 AGS340   0.0000
     6 O1B         39.9270    39.1290     7.1320 O.co2        1 AGS340   0.0000
     7 O2B         41.5770    38.4370     8.9200 O.co2        1 AGS340  -1.0000
     8 O3B         39.5840    39.9680     9.5510 O.3          1 AGS340   0.0000
     9 PA          38.5990    37.0230    10.2780 P.3          1 AGS340   0.0000
    10 O1A         39.6180    36.4040    11.1670 O.co2        1 AGS340   0.0000
    11 O2A         37.6700    38.0040    10.9500 O.co2        1 AGS340  -1.0000
    12 O3A         39.1920    37.5510     8.8710 O.3          1 AGS340   0.0000
    13 O5'         37.6910    35.8300     9.6460 O.3          1 AGS340   0.0000
    14 C5'         36.8130    36.0880     8.5710 C.3          1 AGS340   0.0000
    15 C4'         35.6180    35.1520     8.6280 C.3          1 AGS340   0.0000
    16 O4'         36.0480    33.8060     8.6240 O.3          1 AGS340   0.0000
    17 C3'         34.7690    35.3180     9.8840 C.3          1 AGS340   0.0000
    18 O3'         33.8610    36.3950     9.7890 O.3          1 AGS340   0.0000
    19 C2'         34.1000    33.9680     9.9330 C.3          1 AGS340   0.0000
    20 O2'         33.0200    33.9000     9.0260 O.3          1 AGS340   0.0000
    21 C1'         35.2050    33.0410     9.4710 C.3          1 AGS340   0.0000
    22 N9          35.9670    32.5520    10.6250 N.pl3        1 AGS340   0.0000
    23 C8          37.0670    33.1420    11.2010 C.2          1 AGS340   0.0000
    24 N7          37.4640    32.3770    12.2390 N.2          1 AGS340   0.0000
    25 C5          36.6360    31.3120    12.3250 C.ar         1 AGS340   0.0000
    26 C6          36.5930    30.2200    13.1980 C.ar         1 AGS340   0.0000
    27 N6          37.4700    30.0860    14.1940 N.pl3        1 AGS340   0.0000
    28 N1          35.6070    29.2750    13.0140 N.ar         1 AGS340   0.0000
    29 C2          34.6680    29.3900    12.0020 C.ar         1 AGS340   0.0000
    30 N3          34.7030    30.4700    11.1410 N.ar         1 AGS340   0.0000
    31 C4          35.6850    31.4150    11.3120 C.ar         1 AGS340   0.0000
    32 H5'1        37.2990    35.9499     7.7080 H            1 AGS340   0.0000
    33 H5'2        36.4936    37.0340     8.6260 H            1 AGS340   0.0000
    34 H4'         35.0434    35.3109     7.8252 H            1 AGS340   0.0000
    35 H3'         35.3589    35.4370    10.6827 H            1 AGS340   0.0000
    36 H5          34.2961    37.2288    10.1290 H            1 AGS340   0.0000
    37 H2'         33.8058    33.7443    10.8622 H            1 AGS340   0.0000
    38 H7          32.6197    34.8097     8.9155 H            1 AGS340   0.0000
    39 H1'         34.8174    32.2708     8.9644 H            1 AGS340   0.0000
    40 H9          37.4991    33.9928    10.9018 H            1 AGS340   0.0000
    41 H10         37.4169    29.2954    14.8040 H            1 AGS340   0.0000
    42 H11         38.1806    30.7762    14.3308 H            1 AGS340   0.0000
    43 H12         33.9628    28.6893    11.8943 H            1 AGS340   0.0000
@<TRIPOS>BOND
     1    1    2       2
     2    1    3      ar
     3    1    4      ar
     4    1    8       1
     5    5    6      ar
     6    5    7      ar
     7    5    8       1
     8    5   12       1
     9    9   10      ar
    10    9   11      ar
    11    9   12       1
    12    9   13       1
    13   13   14       1
    14   14   15       1
    15   15   16       1
    16   15   17       1
    17   16   21       1
    18   17   18       1
    19   17   19       1
    20   19   20       1
    21   19   21       1
    22   21   22       1
    23   22   23       1
    24   22   31       1
    25   23   24       2
    26   24   25       1
    27   25   26      ar
    28   25   31      ar
    29   26   27       1
    30   26   28      ar
    31   28   29      ar
    32   29   30      ar
    33   30   31      ar
    34   29   43       1
    35   27   42       1
    36   27   41       1
    37   23   40       1
    38   14   32       1
    39   14   33       1
    40   15   34       1
    41   17   35       1
    42   18   36       1
    43   19   37       1
    44   20   38       1
    45   21   39       1
@<TRIPOS>SUBSTRUCTURE
     1 AGS340      1 GROUP             4 A     AGS     0 **** AGS A 340
