@<TRIPOS>MOLECULE
5ig2_NAD_3_ligand
   70    74     1     0     0
SMALL
NO_CHARGES


@<TRIPOS>ATOM
     1 PA          24.0120    84.8120    -1.8780 P.3          1 NAD301   0.0000
     2 O1A         22.7790    84.8550    -1.0520 O.co2        1 NAD301   0.0000
     3 O2A         24.7220    86.1640    -1.8720 O.co2        1 NAD301  -1.0000
     4 O5B         23.7190    84.4180    -3.4180 O.3          1 NAD301   0.0000
     5 C5B         23.0720    83.1790    -3.7610 C.3          1 NAD301   0.0000
     6 C4B         22.0860    83.4680    -4.8620 C.3          1 NAD301   0.0000
     7 O4B         21.3640    82.2620    -5.1990 O.3          1 NAD301   0.0000
     8 C3B         21.0280    84.5340    -4.5290 C.3          1 NAD301   0.0000
     9 O3B         21.0120    85.5790    -5.4940 O.3          1 NAD301   0.0000
    10 C2B         19.7080    83.7540    -4.5520 C.3          1 NAD301   0.0000
    11 O2B         18.6280    84.5530    -5.0250 O.3          1 NAD301   0.0000
    12 C1B         20.0430    82.6290    -5.5230 C.3          1 NAD301   0.0000
    13 N9A         19.1780    81.4600    -5.4010 N.pl3        1 NAD301   0.0000
    14 C8A         18.6670    80.9330    -4.2440 C.2          1 NAD301   0.0000
    15 N7A         17.7970    79.9690    -4.4330 N.2          1 NAD301   0.0000
    16 C5A         17.7440    79.8400    -5.8130 C.ar         1 NAD301   0.0000
    17 C6A         17.0120    78.9830    -6.6620 C.ar         1 NAD301   0.0000
    18 N6A         16.1110    78.0920    -6.2310 N.pl3        1 NAD301   0.0000
    19 N1A         17.2130    79.0970    -7.9920 N.ar         1 NAD301   0.0000
    20 C2A         18.0700    80.0260    -8.4360 C.ar         1 NAD301   0.0000
    21 N3A         18.8030    80.8960    -7.7370 N.ar         1 NAD301   0.0000
    22 C4A         18.5990    80.7480    -6.4230 C.ar         1 NAD301   0.0000
    23 O3          25.0170    83.7320    -1.2820 O.3          1 NAD301   0.0000
    24 PN          26.4250    83.1620    -1.7770 P.3          1 NAD301   0.0000
    25 O1N         26.8660    83.8890    -2.9900 O.co2        1 NAD301   0.0000
    26 O2N         27.3280    83.0820    -0.6070 O.co2        1 NAD301  -1.0000
    27 O5D         26.0150    81.6820    -2.1840 O.3          1 NAD301   0.0000
    28 C5D         26.6250    81.0390    -3.3230 C.3          1 NAD301   0.0000
    29 C4D         26.9440    79.6080    -2.9630 C.3          1 NAD301   0.0000
    30 O4D         28.0730    79.5800    -2.0640 O.3          1 NAD301   0.0000
    31 C3D         25.8190    78.8270    -2.2620 C.3          1 NAD301   0.0000
    32 O3D         25.7580    77.4980    -2.7720 O.3          1 NAD301   0.0000
    33 C2D         26.2760    78.7960    -0.8010 C.3          1 NAD301   0.0000
    34 O2D         25.7310    77.6580    -0.1280 O.3          1 NAD301   0.0000
    35 C1D         27.7860    78.7060    -1.0110 C.3          1 NAD301   0.0000
    36 N1N         28.6680    79.0770     0.1750 N.ar         1 NAD301   1.0000
    37 C2N         28.5460    80.3080     0.7020 C.ar         1 NAD301   0.0000
    38 C3N         29.3470    80.6900     1.7610 C.ar         1 NAD301   0.0000
    39 C7N         29.4240    82.1020     2.2760 C.2          1 NAD301   0.0000
    40 O7N         29.8870    82.3100     3.4160 O.2          1 NAD301   0.0000
    41 N7N         28.8900    83.0730     1.5340 N.am         1 NAD301   0.0000
    42 C4N         30.2680    79.7750     2.2610 C.ar         1 NAD301   0.0000
    43 C5N         30.3860    78.5250     1.6820 C.ar         1 NAD301   0.0000
    44 C6N         29.5700    78.1880     0.6360 C.ar         1 NAD301   0.0000
    45 H5B1        22.5939    82.8120    -2.9631 H            1 NAD301   0.0000
    46 H5B2        23.7509    82.5161    -4.0769 H            1 NAD301   0.0000
    47 H4B         22.5935    83.7683    -5.6696 H            1 NAD301   0.0000
    48 H3B         21.1914    84.9092    -3.6166 H            1 NAD301   0.0000
    49 H5          20.8022    85.1980    -6.3945 H            1 NAD301   0.0000
    50 H2B         19.5018    83.3858    -3.6454 H            1 NAD301   0.0000
    51 H7          18.5554    84.4611    -6.0181 H            1 NAD301   0.0000
    52 H1B         20.0108    82.9742    -6.4610 H            1 NAD301   0.0000
    53 H8A         18.9336    81.2547    -3.3355 H            1 NAD301   0.0000
    54 H6A1        15.6261    77.5139    -6.8872 H            1 NAD301   0.0000
    55 H6A2        15.9228    78.0044    -5.2528 H            1 NAD301   0.0000
    56 H2A         18.1754    80.0747    -9.4292 H            1 NAD301   0.0000
    57 H5D1        27.4671    81.5192    -3.5686 H            1 NAD301   0.0000
    58 H5D2        25.9927    81.0575    -4.0975 H            1 NAD301   0.0000
    59 H4D         27.1938    79.1200    -3.7993 H            1 NAD301   0.0000
    60 H3D         24.9395    79.2932    -2.3574 H            1 NAD301   0.0000
    61 H17         25.5761    77.5262    -3.7549 H            1 NAD301   0.0000
    62 H2D         26.0294    79.6431    -0.3302 H            1 NAD301   0.0000
    63 H19         26.0394    77.6540     0.8232 H            1 NAD301   0.0000
    64 H1D         28.0130    77.7754    -1.2983 H            1 NAD301   0.0000
    65 H2N         27.8749    80.9476     0.3271 H            1 NAD301   0.0000
    66 H7N1        28.9258    84.0210     1.8502 H            1 NAD301   0.0000
    67 H7N2        28.4538    82.8531     0.6615 H            1 NAD301   0.0000
    68 H4N         30.8450    80.0215     3.0396 H            1 NAD301   0.0000
    69 H5N         31.0619    77.8725     2.0246 H            1 NAD301   0.0000
    70 H6N         29.6430    77.2840     0.2147 H            1 NAD301   0.0000
@<TRIPOS>BOND
     1    1    2      ar
     2    1    3      ar
     3    1    4       1
     4    1   23       1
     5    4    5       1
     6    5    6       1
     7    6    7       1
     8    6    8       1
     9    7   12       1
    10    8    9       1
    11    8   10       1
    12   10   11       1
    13   10   12       1
    14   12   13       1
    15   13   14       1
    16   13   22       1
    17   14   15       2
    18   15   16       1
    19   16   17      ar
    20   16   22      ar
    21   17   18       1
    22   17   19      ar
    23   19   20      ar
    24   20   21      ar
    25   21   22      ar
    26   23   24       1
    27   24   25      ar
    28   24   26      ar
    29   24   27       1
    30   27   28       1
    31   28   29       1
    32   29   30       1
    33   29   31       1
    34   30   35       1
    35   31   32       1
    36   31   33       1
    37   33   34       1
    38   33   35       1
    39   35   36       1
    40   36   37      ar
    41   36   44      ar
    42   37   38      ar
    43   38   39       1
    44   38   42      ar
    45   39   40       2
    46   39   41      am
    47   42   43      ar
    48   43   44      ar
    49   44   70       1
    50    5   45       1
    51    5   46       1
    52    6   47       1
    53    8   48       1
    54    9   49       1
    55   10   50       1
    56   11   51       1
    57   12   52       1
    58   14   53       1
    59   18   54       1
    60   18   55       1
    61   20   56       1
    62   43   69       1
    63   28   57       1
    64   28   58       1
    65   29   59       1
    66   31   60       1
    67   32   61       1
    68   33   62       1
    69   34   63       1
    70   35   64       1
    71   37   65       1
    72   41   66       1
    73   41   67       1
    74   42   68       1
@<TRIPOS>SUBSTRUCTURE
     1 NAD301      1 GROUP             4 C     NAD     0 **** NAD C 301
