@<TRIPOS>MOLECULE
4z1f_H71_1_ligand
   50    53     1     0     0
SMALL
NO_CHARGES


@<TRIPOS>ATOM
     1 C96          4.5660     6.9870    29.0460 C.3          1 H711001   0.0000
     2 C95          3.7900     6.4780    27.8650 C.3          1 H711001   0.0000
     3 C97          2.6740     5.6010    28.3400 C.3          1 H711001   0.0000
     4 N94          3.2450     7.6000    27.1210 N.4          1 H711001   1.0000
     5 C93          2.6510     7.1400    25.8720 C.3          1 H711001   0.0000
     6 C92          3.4640     7.6750    24.7010 C.3          1 H711001   0.0000
     7 C91          4.5520     6.6760    24.3470 C.3          1 H711001   0.0000
     8 N9           5.8290     7.3860    24.1660 N.pl3        1 H711001   0.0000
     9 C4           6.7420     7.8220    25.2180 C.ar         1 H711001   0.0000
    10 N3           6.7220     7.7290    26.5510 N.ar         1 H711001   0.0000
    11 C2           7.7320     8.2390    27.2950 C.ar         1 H711001   0.0000
    12 N1           8.8020     8.8580    26.7250 N.ar         1 H711001   0.0000
    13 C6           8.8720     8.9790    25.3900 C.ar         1 H711001   0.0000
    14 N6          10.0040     9.6350    24.7770 N.pl3        1 H711001   0.0000
    15 C5           7.8520     8.4690    24.5860 C.ar         1 H711001   0.0000
    16 N7           7.6150     8.4240    23.1510 N.2          1 H711001   0.0000
    17 C8           6.3920     7.7770    22.9370 C.2          1 H711001   0.0000
    18 S            5.6610     7.4620    21.3580 S.3          1 H711001   0.0000
    19 C1'          6.0200     5.7560    21.0430 C.ar         1 H711001   0.0000
    20 C6'          7.3450     5.3600    21.0780 C.ar         1 H711001   0.0000
    21 C5'          7.6760     4.0320    20.8470 C.ar         1 H711001   0.0000
    22 O3'          8.8880     3.3920    20.8210 O.3          1 H711001   0.0000
    23 C'2          8.6420     2.1600    20.2380 C.3          1 H711001   0.0000
    24 O1'          7.2890     1.8980    20.4010 O.3          1 H711001   0.0000
    25 C4'          6.6880     3.1130    20.5890 C.ar         1 H711001   0.0000
    26 C3'          5.3520     3.5110    20.5590 C.ar         1 H711001   0.0000
    27 C2'          5.0150     4.8360    20.7900 C.ar         1 H711001   0.0000
    28 I            2.9890     5.4380    20.7440 I            1 H711001   0.0000
    29 H1           5.3113     7.5728    28.7277 H            1 H711001   0.0000
    30 H2           3.9593     7.5135    29.6416 H            1 H711001   0.0000
    31 H3           4.9439     6.2136    29.5549 H            1 H711001   0.0000
    32 H4           4.3974     5.9499    27.2715 H            1 H711001   0.0000
    33 H5           2.1580     5.2626    27.5531 H            1 H711001   0.0000
    34 H6           3.0515     4.8273    28.8488 H            1 H711001   0.0000
    35 H7           2.0669     6.1272    28.9355 H            1 H711001   0.0000
    36 H8           3.9787     8.2484    26.9179 H            1 H711001   0.0000
    37 H9           1.7108     7.4742    25.8063 H            1 H711001   0.0000
    38 H10          2.6517     6.1402    25.8501 H            1 H711001   0.0000
    39 H11          3.8815     8.5474    24.9551 H            1 H711001   0.0000
    40 H12          2.8645     7.8096    23.9120 H            1 H711001   0.0000
    41 H13          4.3092     6.2050    23.4989 H            1 H711001   0.0000
    42 H14          4.6438     6.0075    25.0850 H            1 H711001   0.0000
    43 H15          7.6906     8.1586    28.2909 H            1 H711001   0.0000
    44 H16         10.0523     9.7231    23.7821 H            1 H711001   0.0000
    45 H17         10.7391    10.0009    25.3477 H            1 H711001   0.0000
    46 H6'          8.0630     6.0292    21.2694 H            1 H711001   0.0000
    47 H'21         9.1858     1.4520    20.6885 H            1 H711001   0.0000
    48 H'22         8.8717     2.1882    19.2652 H            1 H711001   0.0000
    49 H3'          4.6354     2.8395    20.3705 H            1 H711001   0.0000
    50 H22          2.5440     8.0519    27.6726 H            1 H711001   0.0000
@<TRIPOS>BOND
     1    1    2       1
     2    2    3       1
     3    2    4       1
     4    4    5       1
     5    5    6       1
     6    6    7       1
     7    7    8       1
     8    8    9       1
     9    8   17       1
    10    9   10      ar
    11    9   15      ar
    12   10   11      ar
    13   11   12      ar
    14   12   13      ar
    15   13   14       1
    16   13   15      ar
    17   15   16       1
    18   16   17       2
    19   17   18       1
    20   18   19       1
    21   19   20      ar
    22   19   27      ar
    23   20   21      ar
    24   21   22       1
    25   21   25      ar
    26   22   23       1
    27   23   24       1
    28   24   25       1
    29   25   26      ar
    30   26   27      ar
    31   27   28       1
    32    1   29       1
    33    1   30       1
    34    1   31       1
    35    2   32       1
    36    3   33       1
    37    3   34       1
    38    3   35       1
    39    4   36       1
    40    5   37       1
    41    5   38       1
    42    6   39       1
    43    6   40       1
    44    7   41       1
    45    7   42       1
    46   11   43       1
    47   14   44       1
    48   14   45       1
    49   20   46       1
    50   23   47       1
    51   23   48       1
    52   26   49       1
    53    4   50       1
@<TRIPOS>SUBSTRUCTURE
     1 H711001     1 GROUP             4 A     H71     0 **** H71 A1001
