@<TRIPOS>MOLECULE
2k1q_GLU_LEU_IBU_OBF_FE3_1_ligand
   84    84     5     0     0
SMALL
NO_CHARGES


@<TRIPOS>ATOM
     1 C           13.2170    -8.6690    -3.9190 C.2          1 IBU187   0.0000
     2 OA2         12.4550    -9.5590    -4.2380 O.2          1 IBU187   0.0000
     3 OA1         14.2050    -8.9370    -3.2190 O.3          1 IBU187   0.0000
     4 CB          15.2530    -9.1030    -3.8860 C.3          1 IBU187   0.0000
     5 CG          15.3930   -10.5750    -4.2990 C.3          1 IBU187   0.0000
     6 CD1         16.4290   -10.6950    -5.4190 C.3          1 IBU187   0.0000
     7 CD2         15.8510   -11.4010    -3.0940 C.3          1 IBU187   0.0000
     8 HB1         16.0423    -8.8393    -3.3316 H            1 IBU187   0.0000
     9 HB2         15.2161    -8.5322    -4.7062 H            1 IBU187   0.0000
    10 HG          14.5105   -10.9167    -4.6222 H            1 IBU187   0.0000
    11 HD11        16.5199   -11.6539    -5.6877 H            1 IBU187   0.0000
    12 HD12        16.1325   -10.1548    -6.2066 H            1 IBU187   0.0000
    13 HD13        17.3116   -10.3547    -5.0946 H            1 IBU187   0.0000
    14 HD21        15.9423   -12.3599    -3.3625 H            1 IBU187   0.0000
    15 HD22        16.7340   -11.0595    -2.7720 H            1 IBU187   0.0000
    16 HD23        15.1758   -11.3231    -2.3605 H            1 IBU187   0.0000
    17 N           12.9800    -7.4270    -4.2400 N.am         2 GLU188   0.0000
    18 CA          13.0590    -6.3830    -3.1770 C.3          2 GLU188   0.0000
    19 C           11.7780    -5.5430    -3.1650 C.2          2 GLU188   0.0000
    20 O           11.3360    -5.0560    -4.1890 O.2          2 GLU188   0.0000
    21 CB          14.2670    -5.5230    -3.5590 C.3          2 GLU188   0.0000
    22 CG          14.4660    -4.4210    -2.5140 C.3          2 GLU188   0.0000
    23 CD          15.6730    -3.5630    -2.8980 C.2          2 GLU188   0.0000
    24 OE1         15.8900    -3.3760    -4.0840 O.co2        2 GLU188   0.0000
    25 OE2         16.3600    -3.1070    -2.0000 O.co2        2 GLU188  -1.0000
    26 HA          13.2040    -6.8078    -2.2834 H            2 GLU188   0.0000
    27 H11         14.1094    -5.1074    -4.4548 H            2 GLU188   0.0000
    28 H12         15.0851    -6.0969    -3.5971 H            2 GLU188   0.0000
    29 HG1         14.6242    -4.8363    -1.6182 H            2 GLU188   0.0000
    30 HG2         13.6481    -3.8469    -2.4756 H            2 GLU188   0.0000
    31 H15         12.7497    -7.1792    -5.1810 H            2 GLU188   0.0000
    32 N           11.1820    -5.3730    -2.0120 N.am         3 LEU189   0.0000
    33 CA           9.9280    -4.5650    -1.9220 C.3          3 LEU189   0.0000
    34 C           10.2570    -3.0710    -1.9650 C.2          3 LEU189   0.0000
    35 O           11.2550    -2.6320    -1.4250 O.2          3 LEU189   0.0000
    36 CB           9.3070    -4.9390    -0.5750 C.3          3 LEU189   0.0000
    37 CG           8.4690    -6.2080    -0.7360 C.3          3 LEU189   0.0000
    38 CD1          9.3890    -7.3930    -1.0410 C.3          3 LEU189   0.0000
    39 CD2          7.7030    -6.4800     0.5610 C.3          3 LEU189   0.0000
    40 H16         11.5678    -5.7860    -1.1870 H            3 LEU189   0.0000
    41 H17          9.3071    -4.8047    -2.6683 H            3 LEU189   0.0000
    42 H18          8.7230    -4.1917    -0.2580 H            3 LEU189   0.0000
    43 H19         10.0329    -5.1013     0.0933 H            3 LEU189   0.0000
    44 H20          7.8205    -6.0867    -1.4875 H            3 LEU189   0.0000
    45 H21          8.8404    -8.2225    -1.1462 H            3 LEU189   0.0000
    46 H22          9.8911    -7.2159    -1.8875 H            3 LEU189   0.0000
    47 H23         10.0364    -7.5147    -0.2886 H            3 LEU189   0.0000
    48 H24          7.1547    -7.3097     0.4566 H            3 LEU189   0.0000
    49 H25          8.3519    -6.6016     1.3121 H            3 LEU189   0.0000
    50 H26          7.1020    -5.7064     0.7617 H            3 LEU189   0.0000
    51 N            9.4240    -2.2900    -2.6040 N.am         4 OBF190   0.0000
    52 CA           9.6800    -0.8210    -2.6900 C.3          4 OBF190   0.0000
    53 CB           9.9860    -0.5560    -4.1640 C.3          4 OBF190   0.0000
    54 CG          11.3370    -1.1760    -4.5230 C.3          4 OBF190   0.0000
    55 FG1         11.9450    -0.5000    -5.5200 F            4 OBF190   0.0000
    56 FG2         11.2050    -2.4620    -4.9120 F            4 OBF190   0.0000
    57 C            8.4410    -0.0370    -2.2490 C.2          4 OBF190   0.0000
    58 O            8.2060     1.0680    -2.7010 O.2          4 OBF190   0.0000
    59 H27         10.4659    -0.5731    -2.1236 H            4 OBF190   0.0000
    60 H28         10.0182     0.4303    -4.3258 H            4 OBF190   0.0000
    61 H29          9.2707    -0.9637    -4.7316 H            4 OBF190   0.0000
    62 H30         11.9249    -1.1471    -3.7146 H            4 OBF190   0.0000
    63 H31          8.6111    -2.6790    -3.0374 H            4 OBF190   0.0000
    64 N            7.6520    -0.5980    -1.3680 N.am         5 FE3191   0.0000
    65 CA           6.4280     0.1170    -0.8920 C.3          5 FE3191   0.0000
    66 CB           6.8390     0.7790     0.4280 C.3          5 FE3191   0.0000
    67 CG           8.0270     1.6870     0.1960 C.ar         5 FE3191   0.0000
    68 CD1          9.3450     1.1770     0.3430 C.ar         5 FE3191   0.0000
    69 CLD1         9.5560    -0.2640     0.7390 Cl           5 FE3191   0.0000
    70 CD2          7.8280     3.0430    -0.1770 C.ar         5 FE3191   0.0000
    71 CE1         10.4620     2.0240     0.1170 C.ar         5 FE3191   0.0000
    72 CE2          8.9460     3.8920    -0.4030 C.ar         5 FE3191   0.0000
    73 CZ          10.2680     3.3850    -0.2560 C.ar         5 FE3191   0.0000
    74 CF          11.3650     4.2140    -0.4770 C.2          5 FE3191   0.0000
    75 OF1         11.1580     5.3750    -0.7960 O.co2        5 FE3191   0.0000
    76 OF2         12.4840     3.7440    -0.3310 O.co2        5 FE3191  -1.0000
    77 HA1          5.6799    -0.5295    -0.7423 H            5 FE3191   0.0000
    78 HA2          6.1439     0.8074    -1.5573 H            5 FE3191   0.0000
    79 H34          7.0854     0.0725     1.0914 H            5 FE3191   0.0000
    80 H35          6.0740     1.3168     0.7823 H            5 FE3191   0.0000
    81 HD2          6.9001     3.4012    -0.2808 H            5 FE3191   0.0000
    82 HE1         11.3890     1.6634     0.2202 H            5 FE3191   0.0000
    83 HE2          8.8034     4.8463    -0.6655 H            5 FE3191   0.0000
    84 H39          7.8684    -1.5072    -1.0123 H            5 FE3191   0.0000
@<TRIPOS>BOND
     1    1    2       2
     2    1    3       1
     3    3    4       1
     4    4    5       1
     5    5    6       1
     6    5    7       1
     7   22   30       1
     8    4    8       1
     9    4    9       1
    10    5   10       1
    11    6   11       1
    12    6   12       1
    13    6   13       1
    14    7   14       1
    15    7   15       1
    16    7   16       1
    17    1   17      am
    18   17   18       1
    19   18   21       1
    20   18   19       1
    21   21   22       1
    22   22   23       1
    23   23   24      ar
    24   23   25      ar
    25   19   20       2
    26   22   29       1
    27   21   28       1
    28   18   26       1
    29   19   32      am
    30   21   27       1
    31   17   31       1
    32   32   33       1
    33   33   36       1
    34   33   34       1
    35   36   37       1
    36   37   38       1
    37   37   39       1
    38   34   35       2
    39   39   50       1
    40   32   40       1
    41   33   41       1
    42   64   84       1
    43   36   42       1
    44   36   43       1
    45   37   44       1
    46   38   45       1
    47   38   46       1
    48   38   47       1
    49   39   48       1
    50   39   49       1
    51   34   51      am
    52   51   52       1
    53   52   53       1
    54   52   57       1
    55   53   54       1
    56   54   55       1
    57   54   56       1
    58   57   58       2
    59   54   62       1
    60   53   61       1
    61   52   59       1
    62   53   60       1
    63   51   63       1
    64   57   64      am
    65   64   65       1
    66   65   66       1
    67   66   67       1
    68   67   68      ar
    69   67   70      ar
    70   68   69       1
    71   68   71      ar
    72   70   72      ar
    73   71   73      ar
    74   72   73      ar
    75   73   74       1
    76   74   75      ar
    77   74   76      ar
    78   72   83       1
    79   71   82       1
    80   65   77       1
    81   65   78       1
    82   66   79       1
    83   66   80       1
    84   70   81       1
@<TRIPOS>SUBSTRUCTURE
     1 IBU187      1 GROUP             4 B     IBU     0 **** IBU B 187
     2 GLU188     17 RESIDUE           4 B     GLU     0 **** GLU B 188
     3 LEU189     32 RESIDUE           4 B     LEU     0 **** LEU B 189
     4 OBF190     51 GROUP             4 B     OBF     0 **** OBF B 190
     5 FE3191     64 GROUP             4 B     FE3     0 **** FE3 B 191
